@<TRIPOS>MOLECULE
guest-2_vm2.mol2 : vm2 ligand conformer 1
          23          22           1
SMALL
USER_CHARGES
 
@<TRIPOS>ATOM
       1    N1      19.741396   18.660993   26.427824 N.4        1 MOL1        -0.5940
       2    H1      20.732079   18.417463   26.528437 H          1 MOL1         0.3649
       3    H2      19.210702   17.784483   26.459097 H          1 MOL1         0.3649
       4    H3      19.480255   19.197240   27.262293 H          1 MOL1         0.3649
       5    C1      19.476342   19.437595   25.154035 C.3        1 MOL1         0.0207
       6    H4      20.047730   20.368604   25.201311 H          1 MOL1         0.0950
       7    H5      18.412435   19.688311   25.126822 H          1 MOL1         0.0950
       8    C2      19.857919   18.659612   23.882138 C.3        1 MOL1        -0.1415
       9    H6      20.923259   18.395786   23.921481 H          1 MOL1         0.0976
      10    H7      19.293731   17.718033   23.847182 H          1 MOL1         0.0976
      11    C3      19.572875   19.484675   22.607695 C.3        1 MOL1        -0.1375
      12    H8      20.135010   20.428128   22.648950 H          1 MOL1         0.0976
      13    H9      18.507177   19.751144   22.574756 H          1 MOL1         0.0976
      14    C4      19.952527   18.712508   21.323705 C.3        1 MOL1        -0.1375
      15    H10     21.018108   18.446092   21.356438 H          1 MOL1         0.0976
      16    H11     19.390499   17.769152   21.282283 H          1 MOL1         0.0976
      17    C5      19.667289   19.537919   20.049304 C.3        1 MOL1        -0.1350
      18    H12     20.229271   20.481786   20.084847 H          1 MOL1         0.0976
      19    H13     18.601822   19.804865   20.010677 H          1 MOL1         0.0976
      20    C6      20.047652   18.763697   18.769298 C.3        1 MOL1        -0.2365
      21    H14     21.116256   18.512153   18.762906 H          1 MOL1         0.0987
      22    H15     19.838003   19.365539   17.875497 H          1 MOL1         0.0987
      23    H16     19.476128   17.829882   18.688205 H          1 MOL1         0.0987
@<TRIPOS>BOND
    1     1     2    1
    2     1     3    1
    3     1     4    1
    4     1     5    1
    5     5     6    1
    6     5     7    1
    7     5     8    1
    8     8     9    1
    9     8    10    1
   10     8    11    1
   11    11    12    1
   12    11    13    1
   13    11    14    1
   14    14    15    1
   15    14    16    1
   16    14    17    1
   17    17    18    1
   18    17    19    1
   19    17    20    1
   20    20    21    1
   21    20    22    1
   22    20    23    1
@<TRIPOS>SUBSTRUCTURE
       1 MOL1            1 RESIDUE      1      MOL     
@<SCITEGIC>MOL_PROPERTY
VM2 Rank
SciTegic.value.IntegerValue
1

@<SCITEGIC>MOL_PROPERTY
Conf_Id
SciTegic.value.IntegerValue
242

@<SCITEGIC>MOL_PROPERTY
Probability
SciTegic.value.DoubleValue
11.98

@<SCITEGIC>MOL_PROPERTY
Sum Probability
SciTegic.value.DoubleValue
11.98

@<SCITEGIC>MOL_PROPERTY
Delta G
SciTegic.value.DoubleValue
0.000

@<SCITEGIC>MOL_PROPERTY
G
SciTegic.value.DoubleValue
37.916

@<SCITEGIC>MOL_PROPERTY
E
SciTegic.value.DoubleValue
10.396

@<SCITEGIC>MOL_PROPERTY
-TS
SciTegic.value.DoubleValue
27.520

@<SCITEGIC>MOL_PROPERTY
U+W
SciTegic.value.DoubleValue
-8.383

@<SCITEGIC>MOL_PROPERTY
U
SciTegic.value.DoubleValue
46.604

@<SCITEGIC>MOL_PROPERTY
W
SciTegic.value.DoubleValue
-54.986

@<SCITEGIC>MOL_PROPERTY
W(PB)
SciTegic.value.DoubleValue
-57.162

@<SCITEGIC>MOL_PROPERTY
W(SA)
SciTegic.value.DoubleValue
2.176

@<SCITEGIC>MOL_PROPERTY
Valence
SciTegic.value.DoubleValue
1.727

@<SCITEGIC>MOL_PROPERTY
Coulomb
SciTegic.value.DoubleValue
44.434

@<SCITEGIC>MOL_PROPERTY
VdW
SciTegic.value.DoubleValue
0.443

@<SCITEGIC>MOL_PROPERTY
VdW6
SciTegic.value.DoubleValue
-4.623

@<SCITEGIC>MOL_PROPERTY
VdW12
SciTegic.value.DoubleValue
5.066

@<SCITEGIC>MOL_PROPERTY
Bond
SciTegic.value.DoubleValue
0.112

@<SCITEGIC>MOL_PROPERTY
Angle
SciTegic.value.DoubleValue
0.386

@<SCITEGIC>MOL_PROPERTY
Pdih
SciTegic.value.DoubleValue
1.228

@<SCITEGIC>MOL_PROPERTY
Idih
SciTegic.value.DoubleValue
0.000

@<SCITEGIC>MOL_PROPERTY
Tether
SciTegic.value.DoubleValue
0.000

@<TRIPOS>MOLECULE
guest-2_vm2.mol2 : vm2 ligand conformer 2
          23          22           1
SMALL
USER_CHARGES
 
@<TRIPOS>ATOM
       1    N1      20.449121   19.457320   25.793954 N.4        1 MOL1        -0.5940
       2    H1      20.855754   20.175160   25.186589 H          1 MOL1         0.3649
       3    H2      21.137273   18.701777   25.873215 H          1 MOL1         0.3649
       4    H3      20.353392   19.873282   26.726586 H          1 MOL1         0.3649
       5    C1      19.120357   18.956367   25.262286 C.3        1 MOL1         0.0207
       6    H4      18.428703   19.802356   25.225590 H          1 MOL1         0.0950
       7    H5      18.730035   18.228340   25.978676 H          1 MOL1         0.0950
       8    C2      19.214639   18.302624   23.869950 C.3        1 MOL1        -0.1415
       9    H6      19.914270   17.457047   23.908645 H          1 MOL1         0.0976
      10    H7      18.231645   17.884266   23.615621 H          1 MOL1         0.0976
      11    C3      19.647531   19.299639   22.768904 C.3        1 MOL1        -0.1375
      12    H8      20.646438   19.695724   22.995488 H          1 MOL1         0.0976
      13    H9      18.959173   20.156244   22.759938 H          1 MOL1         0.0976
      14    C4      19.667138   18.639092   21.371689 C.3        1 MOL1        -0.1375
      15    H10     20.353274   17.780811   21.380669 H          1 MOL1         0.0976
      16    H11     18.668616   18.244919   21.137035 H          1 MOL1         0.0976
      17    C5      20.099740   19.632557   20.270461 C.3        1 MOL1        -0.1350
      18    H12     21.099629   20.027608   20.498726 H          1 MOL1         0.0976
      19    H13     19.415064   20.492200   20.256306 H          1 MOL1         0.0976
      20    C6      20.117474   18.969401   18.876757 C.3        1 MOL1        -0.2365
      21    H14     20.819695   18.125964   18.849791 H          1 MOL1         0.0987
      22    H15     20.426851   19.689906   18.108513 H          1 MOL1         0.0987
      23    H16     19.122053   18.594297   18.605344 H          1 MOL1         0.0987
@<TRIPOS>BOND
    1     1     2    1
    2     1     3    1
    3     1     4    1
    4     1     5    1
    5     5     6    1
    6     5     7    1
    7     5     8    1
    8     8     9    1
    9     8    10    1
   10     8    11    1
   11    11    12    1
   12    11    13    1
   13    11    14    1
   14    14    15    1
   15    14    16    1
   16    14    17    1
   17    17    18    1
   18    17    19    1
   19    17    20    1
   20    20    21    1
   21    20    22    1
   22    20    23    1
@<TRIPOS>SUBSTRUCTURE
       1 MOL1            1 RESIDUE      1      MOL     
@<SCITEGIC>MOL_PROPERTY
VM2 Rank
SciTegic.value.IntegerValue
2

@<SCITEGIC>MOL_PROPERTY
Conf_Id
SciTegic.value.IntegerValue
674

@<SCITEGIC>MOL_PROPERTY
Probability
SciTegic.value.DoubleValue
7.37

@<SCITEGIC>MOL_PROPERTY
Sum Probability
SciTegic.value.DoubleValue
19.35

@<SCITEGIC>MOL_PROPERTY
Delta G
SciTegic.value.DoubleValue
0.290

@<SCITEGIC>MOL_PROPERTY
G
SciTegic.value.DoubleValue
38.206

@<SCITEGIC>MOL_PROPERTY
E
SciTegic.value.DoubleValue
10.584

@<SCITEGIC>MOL_PROPERTY
-TS
SciTegic.value.DoubleValue
27.622

@<SCITEGIC>MOL_PROPERTY
U+W
SciTegic.value.DoubleValue
-8.195

@<SCITEGIC>MOL_PROPERTY
U
SciTegic.value.DoubleValue
47.288

@<SCITEGIC>MOL_PROPERTY
W
SciTegic.value.DoubleValue
-55.483

@<SCITEGIC>MOL_PROPERTY
W(PB)
SciTegic.value.DoubleValue
-57.632

@<SCITEGIC>MOL_PROPERTY
W(SA)
SciTegic.value.DoubleValue
2.149

@<SCITEGIC>MOL_PROPERTY
Valence
SciTegic.value.DoubleValue
1.833

@<SCITEGIC>MOL_PROPERTY
Coulomb
SciTegic.value.DoubleValue
44.908

@<SCITEGIC>MOL_PROPERTY
VdW
SciTegic.value.DoubleValue
0.548

@<SCITEGIC>MOL_PROPERTY
VdW6
SciTegic.value.DoubleValue
-5.142

@<SCITEGIC>MOL_PROPERTY
VdW12
SciTegic.value.DoubleValue
5.689

@<SCITEGIC>MOL_PROPERTY
Bond
SciTegic.value.DoubleValue
0.133

@<SCITEGIC>MOL_PROPERTY
Angle
SciTegic.value.DoubleValue
0.431

@<SCITEGIC>MOL_PROPERTY
Pdih
SciTegic.value.DoubleValue
1.269

@<SCITEGIC>MOL_PROPERTY
Idih
SciTegic.value.DoubleValue
0.000

@<SCITEGIC>MOL_PROPERTY
Tether
SciTegic.value.DoubleValue
0.000

@<TRIPOS>MOLECULE
guest-2_vm2.mol2 : vm2 ligand conformer 3
          23          22           1
SMALL
USER_CHARGES
 
@<TRIPOS>ATOM
       1    N1      18.729856   18.742210   25.715503 N.4        1 MOL1        -0.5940
       2    H1      17.983390   18.980497   25.055544 H          1 MOL1         0.3649
       3    H2      18.430196   19.073321   26.638845 H          1 MOL1         0.3649
       4    H3      18.775428   17.719413   25.765409 H          1 MOL1         0.3649
       5    C1      20.058603   19.346542   25.305077 C.3        1 MOL1         0.0207
       6    H4      20.792382   19.085965   26.072707 H          1 MOL1         0.0950
       7    H5      19.948174   20.434262   25.294971 H          1 MOL1         0.0950
       8    C2      20.563243   18.863573   23.931416 C.3        1 MOL1        -0.1415
       9    H6      21.569216   19.272503   23.767775 H          1 MOL1         0.0976
      10    H7      20.667698   17.770439   23.942924 H          1 MOL1         0.0976
      11    C3      19.638952   19.296140   22.768526 C.3        1 MOL1        -0.1375
      12    H8      19.516485   20.388115   22.785379 H          1 MOL1         0.0976
      13    H9      18.639725   18.861145   22.904031 H          1 MOL1         0.0976
      14    C4      20.201182   18.861311   21.396032 C.3        1 MOL1        -0.1375
      15    H10     21.199364   19.297737   21.252339 H          1 MOL1         0.0976
      16    H11     20.326501   17.769738   21.379474 H          1 MOL1         0.0976
      17    C5      19.279542   19.291406   20.233094 C.3        1 MOL1        -0.1350
      18    H12     19.152697   20.383080   20.244275 H          1 MOL1         0.0976
      19    H13     18.280252   18.854902   20.370322 H          1 MOL1         0.0976
      20    C6      19.844622   18.855818   18.864353 C.3        1 MOL1        -0.2365
      21    H14     19.176949   19.169894   18.051573 H          1 MOL1         0.0987
      22    H15     19.950807   17.764475   18.810299 H          1 MOL1         0.0987
      23    H16     20.830026   19.304564   18.683155 H          1 MOL1         0.0987
@<TRIPOS>BOND
    1     1     2    1
    2     1     3    1
    3     1     4    1
    4     1     5    1
    5     5     6    1
    6     5     7    1
    7     5     8    1
    8     8     9    1
    9     8    10    1
   10     8    11    1
   11    11    12    1
   12    11    13    1
   13    11    14    1
   14    14    15    1
   15    14    16    1
   16    14    17    1
   17    17    18    1
   18    17    19    1
   19    17    20    1
   20    20    21    1
   21    20    22    1
   22    20    23    1
@<TRIPOS>SUBSTRUCTURE
       1 MOL1            1 RESIDUE      1      MOL     
@<SCITEGIC>MOL_PROPERTY
VM2 Rank
SciTegic.value.IntegerValue
3

@<SCITEGIC>MOL_PROPERTY
Conf_Id
SciTegic.value.IntegerValue
745

@<SCITEGIC>MOL_PROPERTY
Probability
SciTegic.value.DoubleValue
7.16

@<SCITEGIC>MOL_PROPERTY
Sum Probability
SciTegic.value.DoubleValue
26.51

@<SCITEGIC>MOL_PROPERTY
Delta G
SciTegic.value.DoubleValue
0.307

@<SCITEGIC>MOL_PROPERTY
G
SciTegic.value.DoubleValue
38.223

@<SCITEGIC>MOL_PROPERTY
E
SciTegic.value.DoubleValue
10.600

@<SCITEGIC>MOL_PROPERTY
-TS
SciTegic.value.DoubleValue
27.623

@<SCITEGIC>MOL_PROPERTY
U+W
SciTegic.value.DoubleValue
-8.179

@<SCITEGIC>MOL_PROPERTY
U
SciTegic.value.DoubleValue
47.288

@<SCITEGIC>MOL_PROPERTY
W
SciTegic.value.DoubleValue
-55.467

@<SCITEGIC>MOL_PROPERTY
W(PB)
SciTegic.value.DoubleValue
-57.600

@<SCITEGIC>MOL_PROPERTY
W(SA)
SciTegic.value.DoubleValue
2.133

@<SCITEGIC>MOL_PROPERTY
Valence
SciTegic.value.DoubleValue
1.833

@<SCITEGIC>MOL_PROPERTY
Coulomb
SciTegic.value.DoubleValue
44.908

@<SCITEGIC>MOL_PROPERTY
VdW
SciTegic.value.DoubleValue
0.548

@<SCITEGIC>MOL_PROPERTY
VdW6
SciTegic.value.DoubleValue
-5.142

@<SCITEGIC>MOL_PROPERTY
VdW12
SciTegic.value.DoubleValue
5.689

@<SCITEGIC>MOL_PROPERTY
Bond
SciTegic.value.DoubleValue
0.133

@<SCITEGIC>MOL_PROPERTY
Angle
SciTegic.value.DoubleValue
0.431

@<SCITEGIC>MOL_PROPERTY
Pdih
SciTegic.value.DoubleValue
1.269

@<SCITEGIC>MOL_PROPERTY
Idih
SciTegic.value.DoubleValue
0.000

@<SCITEGIC>MOL_PROPERTY
Tether
SciTegic.value.DoubleValue
0.000

@<TRIPOS>MOLECULE
guest-2_vm2.mol2 : vm2 ligand conformer 4
          23          22           1
SMALL
USER_CHARGES
 
@<TRIPOS>ATOM
       1    N1      19.509671   18.259918   26.054900 N.4        1 MOL1        -0.5940
       2    H1      20.406720   17.770686   26.137323 H          1 MOL1         0.3649
       3    H2      18.790056   17.626384   26.419350 H          1 MOL1         0.3649
       4    H3      19.546029   19.064950   26.688503 H          1 MOL1         0.3649
       5    C1      19.221969   18.676834   24.626898 C.3        1 MOL1         0.0207
       6    H4      18.243262   19.163860   24.608083 H          1 MOL1         0.0950
       7    H5      19.167438   17.770886   24.017819 H          1 MOL1         0.0950
       8    C2      20.286049   19.629893   24.050469 C.3        1 MOL1        -0.1415
       9    H6      20.362165   20.514990   24.696036 H          1 MOL1         0.0976
      10    H7      21.269204   19.141008   24.070278 H          1 MOL1         0.0976
      11    C3      19.961540   20.086811   22.608610 C.3        1 MOL1        -0.1375
      12    H8      20.707733   20.831620   22.298923 H          1 MOL1         0.0976
      13    H9      18.988965   20.598281   22.596543 H          1 MOL1         0.0976
      14    C4      19.951936   18.922191   21.589283 C.3        1 MOL1        -0.1375
      15    H10     20.913932   18.392564   21.627684 H          1 MOL1         0.0976
      16    H11     19.176238   18.193152   21.859198 H          1 MOL1         0.0976
      17    C5      19.697785   19.421885   20.149669 C.3        1 MOL1        -0.1350
      18    H12     20.473727   20.146526   19.865467 H          1 MOL1         0.0976
      19    H13     18.736691   19.953242   20.105653 H          1 MOL1         0.0976
      20    C6      19.687050   18.259468   19.134172 C.3        1 MOL1        -0.2365
      21    H14     20.648257   17.729091   19.131072 H          1 MOL1         0.0987
      22    H15     19.505760   18.633898   18.118308 H          1 MOL1         0.0987
      23    H16     18.897432   17.534739   19.371850 H          1 MOL1         0.0987
@<TRIPOS>BOND
    1     1     2    1
    2     1     3    1
    3     1     4    1
    4     1     5    1
    5     5     6    1
    6     5     7    1
    7     5     8    1
    8     8     9    1
    9     8    10    1
   10     8    11    1
   11    11    12    1
   12    11    13    1
   13    11    14    1
   14    14    15    1
   15    14    16    1
   16    14    17    1
   17    17    18    1
   18    17    19    1
   19    17    20    1
   20    20    21    1
   21    20    22    1
   22    20    23    1
@<TRIPOS>SUBSTRUCTURE
       1 MOL1            1 RESIDUE      1      MOL     
@<SCITEGIC>MOL_PROPERTY
VM2 Rank
SciTegic.value.IntegerValue
4

@<SCITEGIC>MOL_PROPERTY
Conf_Id
SciTegic.value.IntegerValue
707

@<SCITEGIC>MOL_PROPERTY
Probability
SciTegic.value.DoubleValue
5.52

@<SCITEGIC>MOL_PROPERTY
Sum Probability
SciTegic.value.DoubleValue
32.03

@<SCITEGIC>MOL_PROPERTY
Delta G
SciTegic.value.DoubleValue
0.462

@<SCITEGIC>MOL_PROPERTY
G
SciTegic.value.DoubleValue
38.379

@<SCITEGIC>MOL_PROPERTY
E
SciTegic.value.DoubleValue
10.760

@<SCITEGIC>MOL_PROPERTY
-TS
SciTegic.value.DoubleValue
27.618

@<SCITEGIC>MOL_PROPERTY
U+W
SciTegic.value.DoubleValue
-8.019

@<SCITEGIC>MOL_PROPERTY
U
SciTegic.value.DoubleValue
47.375

@<SCITEGIC>MOL_PROPERTY
W
SciTegic.value.DoubleValue
-55.393

@<SCITEGIC>MOL_PROPERTY
W(PB)
SciTegic.value.DoubleValue
-57.545

@<SCITEGIC>MOL_PROPERTY
W(SA)
SciTegic.value.DoubleValue
2.152

@<SCITEGIC>MOL_PROPERTY
Valence
SciTegic.value.DoubleValue
2.032

@<SCITEGIC>MOL_PROPERTY
Coulomb
SciTegic.value.DoubleValue
44.843

@<SCITEGIC>MOL_PROPERTY
VdW
SciTegic.value.DoubleValue
0.499

@<SCITEGIC>MOL_PROPERTY
VdW6
SciTegic.value.DoubleValue
-5.218

@<SCITEGIC>MOL_PROPERTY
VdW12
SciTegic.value.DoubleValue
5.717

@<SCITEGIC>MOL_PROPERTY
Bond
SciTegic.value.DoubleValue
0.135

@<SCITEGIC>MOL_PROPERTY
Angle
SciTegic.value.DoubleValue
0.514

@<SCITEGIC>MOL_PROPERTY
Pdih
SciTegic.value.DoubleValue
1.383

@<SCITEGIC>MOL_PROPERTY
Idih
SciTegic.value.DoubleValue
0.000

@<SCITEGIC>MOL_PROPERTY
Tether
SciTegic.value.DoubleValue
0.000

@<TRIPOS>MOLECULE
guest-2_vm2.mol2 : vm2 ligand conformer 5
          23          22           1
SMALL
USER_CHARGES
 
@<TRIPOS>ATOM
       1    N1      20.216870   18.554021   26.087084 N.4        1 MOL1        -0.5940
       2    H1      21.142283   18.604674   26.526489 H          1 MOL1         0.3649
       3    H2      19.927051   17.571146   26.115395 H          1 MOL1         0.3649
       4    H3      19.572315   19.075830   26.689674 H          1 MOL1         0.3649
       5    C1      20.234449   19.097949   24.673009 C.3        1 MOL1         0.0207
       6    H4      20.961298   18.517008   24.099520 H          1 MOL1         0.0950
       7    H5      20.578216   20.135023   24.714472 H          1 MOL1         0.0950
       8    C2      18.857452   19.035711   23.985361 C.3        1 MOL1        -0.1415
       9    H6      18.511825   17.994137   23.944594 H          1 MOL1         0.0976
      10    H7      18.127369   19.585465   24.594208 H          1 MOL1         0.0976
      11    C3      18.873624   19.634356   22.559038 C.3        1 MOL1        -0.1375
      12    H8      19.195223   20.684129   22.605960 H          1 MOL1         0.0976
      13    H9      17.846538   19.641581   22.168535 H          1 MOL1         0.0976
      14    C4      19.783919   18.852353   21.581649 C.3        1 MOL1        -0.1375
      15    H10     20.823640   18.878464   21.934290 H          1 MOL1         0.0976
      16    H11     19.480584   17.796401   21.562426 H          1 MOL1         0.0976
      17    C5      19.720233   19.431215   20.150695 C.3        1 MOL1        -0.1350
      18    H12     20.022167   20.487923   20.164188 H          1 MOL1         0.0976
      19    H13     18.684562   19.402305   19.783939 H          1 MOL1         0.0976
      20    C6      20.629454   18.651395   19.177165 C.3        1 MOL1        -0.2365
      21    H14     20.570460   19.076641   18.166853 H          1 MOL1         0.0987
      22    H15     20.330387   17.596821   19.116677 H          1 MOL1         0.0987
      23    H16     21.678393   18.691403   19.498644 H          1 MOL1         0.0987
@<TRIPOS>BOND
    1     1     2    1
    2     1     3    1
    3     1     4    1
    4     1     5    1
    5     5     6    1
    6     5     7    1
    7     5     8    1
    8     8     9    1
    9     8    10    1
   10     8    11    1
   11    11    12    1
   12    11    13    1
   13    11    14    1
   14    14    15    1
   15    14    16    1
   16    14    17    1
   17    17    18    1
   18    17    19    1
   19    17    20    1
   20    20    21    1
   21    20    22    1
   22    20    23    1
@<TRIPOS>SUBSTRUCTURE
       1 MOL1            1 RESIDUE      1      MOL     
@<SCITEGIC>MOL_PROPERTY
VM2 Rank
SciTegic.value.IntegerValue
5

@<SCITEGIC>MOL_PROPERTY
Conf_Id
SciTegic.value.IntegerValue
692

@<SCITEGIC>MOL_PROPERTY
Probability
SciTegic.value.DoubleValue
4.93

@<SCITEGIC>MOL_PROPERTY
Sum Probability
SciTegic.value.DoubleValue
36.95

@<SCITEGIC>MOL_PROPERTY
Delta G
SciTegic.value.DoubleValue
0.530

@<SCITEGIC>MOL_PROPERTY
G
SciTegic.value.DoubleValue
38.446

@<SCITEGIC>MOL_PROPERTY
E
SciTegic.value.DoubleValue
10.828

@<SCITEGIC>MOL_PROPERTY
-TS
SciTegic.value.DoubleValue
27.618

@<SCITEGIC>MOL_PROPERTY
U+W
SciTegic.value.DoubleValue
-7.951

@<SCITEGIC>MOL_PROPERTY
U
SciTegic.value.DoubleValue
47.375

@<SCITEGIC>MOL_PROPERTY
W
SciTegic.value.DoubleValue
-55.326

@<SCITEGIC>MOL_PROPERTY
W(PB)
SciTegic.value.DoubleValue
-57.492

@<SCITEGIC>MOL_PROPERTY
W(SA)
SciTegic.value.DoubleValue
2.166

@<SCITEGIC>MOL_PROPERTY
Valence
SciTegic.value.DoubleValue
2.032

@<SCITEGIC>MOL_PROPERTY
Coulomb
SciTegic.value.DoubleValue
44.843

@<SCITEGIC>MOL_PROPERTY
VdW
SciTegic.value.DoubleValue
0.500

@<SCITEGIC>MOL_PROPERTY
VdW6
SciTegic.value.DoubleValue
-5.218

@<SCITEGIC>MOL_PROPERTY
VdW12
SciTegic.value.DoubleValue
5.718

@<SCITEGIC>MOL_PROPERTY
Bond
SciTegic.value.DoubleValue
0.135

@<SCITEGIC>MOL_PROPERTY
Angle
SciTegic.value.DoubleValue
0.514

@<SCITEGIC>MOL_PROPERTY
Pdih
SciTegic.value.DoubleValue
1.383

@<SCITEGIC>MOL_PROPERTY
Idih
SciTegic.value.DoubleValue
0.000

@<SCITEGIC>MOL_PROPERTY
Tether
SciTegic.value.DoubleValue
0.000

@<TRIPOS>MOLECULE
guest-2_vm2.mol2 : vm2 ligand conformer 6
          23          22           1
SMALL
USER_CHARGES
 
@<TRIPOS>ATOM
       1    N1      19.547361   18.752210   26.321647 N.4        1 MOL1        -0.5940
       2    H1      18.841109   18.969449   27.033049 H          1 MOL1         0.3649
       3    H2      20.408312   19.234045   26.599986 H          1 MOL1         0.3649
       4    H3      19.731822   17.745682   26.382856 H          1 MOL1         0.3649
       5    C1      19.093598   19.160784   24.934907 C.3        1 MOL1         0.0207
       6    H4      18.887533   20.234472   24.949910 H          1 MOL1         0.0950
       7    H5      18.160295   18.634708   24.716548 H          1 MOL1         0.0950
       8    C2      20.132283   18.847896   23.843201 C.3        1 MOL1        -0.1415
       9    H6      21.072807   19.364967   24.075814 H          1 MOL1         0.0976
      10    H7      20.347991   17.771064   23.842311 H          1 MOL1         0.0976
      11    C3      19.632215   19.279031   22.446635 C.3        1 MOL1        -0.1375
      12    H8      19.415956   20.356405   22.451739 H          1 MOL1         0.0976
      13    H9      18.686538   18.764775   22.229895 H          1 MOL1         0.0976
      14    C4      20.669476   18.964499   21.341777 C.3        1 MOL1        -0.1375
      15    H10     21.629834   19.426840   21.608912 H          1 MOL1         0.0976
      16    H11     20.849397   17.881368   21.299472 H          1 MOL1         0.0976
      17    C5      20.252368   19.473887   19.940842 C.3        1 MOL1        -0.1350
      18    H12     21.084486   19.306364   19.242722 H          1 MOL1         0.0976
      19    H13     20.092490   20.560725   19.972824 H          1 MOL1         0.0976
      20    C6      18.988698   18.778693   19.384991 C.3        1 MOL1        -0.2365
      21    H14     18.790319   19.107677   18.356711 H          1 MOL1         0.0987
      22    H15     18.100901   19.016689   19.983819 H          1 MOL1         0.0987
      23    H16     19.112090   17.688016   19.370279 H          1 MOL1         0.0987
@<TRIPOS>BOND
    1     1     2    1
    2     1     3    1
    3     1     4    1
    4     1     5    1
    5     5     6    1
    6     5     7    1
    7     5     8    1
    8     8     9    1
    9     8    10    1
   10     8    11    1
   11    11    12    1
   12    11    13    1
   13    11    14    1
   14    14    15    1
   15    14    16    1
   16    14    17    1
   17    17    18    1
   18    17    19    1
   19    17    20    1
   20    20    21    1
   21    20    22    1
   22    20    23    1
@<TRIPOS>SUBSTRUCTURE
       1 MOL1            1 RESIDUE      1      MOL     
@<SCITEGIC>MOL_PROPERTY
VM2 Rank
SciTegic.value.IntegerValue
6

@<SCITEGIC>MOL_PROPERTY
Conf_Id
SciTegic.value.IntegerValue
229

@<SCITEGIC>MOL_PROPERTY
Probability
SciTegic.value.DoubleValue
4.33

@<SCITEGIC>MOL_PROPERTY
Sum Probability
SciTegic.value.DoubleValue
41.29

@<SCITEGIC>MOL_PROPERTY
Delta G
SciTegic.value.DoubleValue
0.606

@<SCITEGIC>MOL_PROPERTY
G
SciTegic.value.DoubleValue
38.523

@<SCITEGIC>MOL_PROPERTY
E
SciTegic.value.DoubleValue
10.892

@<SCITEGIC>MOL_PROPERTY
-TS
SciTegic.value.DoubleValue
27.630

@<SCITEGIC>MOL_PROPERTY
U+W
SciTegic.value.DoubleValue
-7.887

@<SCITEGIC>MOL_PROPERTY
U
SciTegic.value.DoubleValue
47.264

@<SCITEGIC>MOL_PROPERTY
W
SciTegic.value.DoubleValue
-55.151

@<SCITEGIC>MOL_PROPERTY
W(PB)
SciTegic.value.DoubleValue
-57.313

@<SCITEGIC>MOL_PROPERTY
W(SA)
SciTegic.value.DoubleValue
2.162

@<SCITEGIC>MOL_PROPERTY
Valence
SciTegic.value.DoubleValue
2.234

@<SCITEGIC>MOL_PROPERTY
Coulomb
SciTegic.value.DoubleValue
44.451

@<SCITEGIC>MOL_PROPERTY
VdW
SciTegic.value.DoubleValue
0.580

@<SCITEGIC>MOL_PROPERTY
VdW6
SciTegic.value.DoubleValue
-5.234

@<SCITEGIC>MOL_PROPERTY
VdW12
SciTegic.value.DoubleValue
5.814

@<SCITEGIC>MOL_PROPERTY
Bond
SciTegic.value.DoubleValue
0.148

@<SCITEGIC>MOL_PROPERTY
Angle
SciTegic.value.DoubleValue
0.630

@<SCITEGIC>MOL_PROPERTY
Pdih
SciTegic.value.DoubleValue
1.456

@<SCITEGIC>MOL_PROPERTY
Idih
SciTegic.value.DoubleValue
0.000

@<SCITEGIC>MOL_PROPERTY
Tether
SciTegic.value.DoubleValue
0.000

@<TRIPOS>MOLECULE
guest-2_vm2.mol2 : vm2 ligand conformer 7
          23          22           1
SMALL
USER_CHARGES
 
@<TRIPOS>ATOM
       1    N1      19.821331   18.865959   26.334129 N.4        1 MOL1        -0.5940
       2    H1      20.399807   18.023353   26.413182 H          1 MOL1         0.3649
       3    H2      18.854303   18.587240   26.529184 H          1 MOL1         0.3649
       4    H3      20.108077   19.496244   27.090830 H          1 MOL1         0.3649
       5    C1      19.958002   19.520347   24.974355 C.3        1 MOL1         0.0207
       6    H4      21.002495   19.817121   24.846092 H          1 MOL1         0.0950
       7    H5      19.341251   20.423175   24.970773 H          1 MOL1         0.0950
       8    C2      19.535086   18.599529   23.815982 C.3        1 MOL1        -0.1415
       9    H6      20.146133   17.687154   23.833040 H          1 MOL1         0.0976
      10    H7      18.490767   18.290908   23.958143 H          1 MOL1         0.0976
      11    C3      19.689164   19.302869   22.449259 C.3        1 MOL1        -0.1375
      12    H8      20.733895   19.616529   22.323186 H          1 MOL1         0.0976
      13    H9      19.077862   20.215928   22.436442 H          1 MOL1         0.0976
      14    C4      19.269300   18.382339   21.277978 C.3        1 MOL1        -0.1375
      15    H10     19.912941   17.492052   21.256845 H          1 MOL1         0.0976
      16    H11     18.247041   18.020189   21.454724 H          1 MOL1         0.0976
      17    C5      19.310317   19.082181   19.897900 C.3        1 MOL1        -0.1350
      18    H12     18.650920   19.961334   19.907096 H          1 MOL1         0.0976
      19    H13     18.898687   18.397526   19.143140 H          1 MOL1         0.0976
      20    C6      20.732800   19.503776   19.464397 C.3        1 MOL1        -0.2365
      21    H14     21.419197   18.647180   19.475406 H          1 MOL1         0.0987
      22    H15     21.141345   20.280803   20.122225 H          1 MOL1         0.0987
      23    H16     20.719022   19.909422   18.444491 H          1 MOL1         0.0987
@<TRIPOS>BOND
    1     1     2    1
    2     1     3    1
    3     1     4    1
    4     1     5    1
    5     5     6    1
    6     5     7    1
    7     5     8    1
    8     8     9    1
    9     8    10    1
   10     8    11    1
   11    11    12    1
   12    11    13    1
   13    11    14    1
   14    14    15    1
   15    14    16    1
   16    14    17    1
   17    17    18    1
   18    17    19    1
   19    17    20    1
   20    20    21    1
   21    20    22    1
   22    20    23    1
@<TRIPOS>SUBSTRUCTURE
       1 MOL1            1 RESIDUE      1      MOL     
@<SCITEGIC>MOL_PROPERTY
VM2 Rank
SciTegic.value.IntegerValue
7

@<SCITEGIC>MOL_PROPERTY
Conf_Id
SciTegic.value.IntegerValue
714

@<SCITEGIC>MOL_PROPERTY
Probability
SciTegic.value.DoubleValue
4.10

@<SCITEGIC>MOL_PROPERTY
Sum Probability
SciTegic.value.DoubleValue
45.39

@<SCITEGIC>MOL_PROPERTY
Delta G
SciTegic.value.DoubleValue
0.639

@<SCITEGIC>MOL_PROPERTY
G
SciTegic.value.DoubleValue
38.555

@<SCITEGIC>MOL_PROPERTY
E
SciTegic.value.DoubleValue
10.925

@<SCITEGIC>MOL_PROPERTY
-TS
SciTegic.value.DoubleValue
27.630

@<SCITEGIC>MOL_PROPERTY
U+W
SciTegic.value.DoubleValue
-7.854

@<SCITEGIC>MOL_PROPERTY
U
SciTegic.value.DoubleValue
47.264

@<SCITEGIC>MOL_PROPERTY
W
SciTegic.value.DoubleValue
-55.118

@<SCITEGIC>MOL_PROPERTY
W(PB)
SciTegic.value.DoubleValue
-57.284

@<SCITEGIC>MOL_PROPERTY
W(SA)
SciTegic.value.DoubleValue
2.165

@<SCITEGIC>MOL_PROPERTY
Valence
SciTegic.value.DoubleValue
2.234

@<SCITEGIC>MOL_PROPERTY
Coulomb
SciTegic.value.DoubleValue
44.451

@<SCITEGIC>MOL_PROPERTY
VdW
SciTegic.value.DoubleValue
0.580

@<SCITEGIC>MOL_PROPERTY
VdW6
SciTegic.value.DoubleValue
-5.234

@<SCITEGIC>MOL_PROPERTY
VdW12
SciTegic.value.DoubleValue
5.814

@<SCITEGIC>MOL_PROPERTY
Bond
SciTegic.value.DoubleValue
0.148

@<SCITEGIC>MOL_PROPERTY
Angle
SciTegic.value.DoubleValue
0.630

@<SCITEGIC>MOL_PROPERTY
Pdih
SciTegic.value.DoubleValue
1.457

@<SCITEGIC>MOL_PROPERTY
Idih
SciTegic.value.DoubleValue
0.000

@<SCITEGIC>MOL_PROPERTY
Tether
SciTegic.value.DoubleValue
0.000

@<TRIPOS>MOLECULE
guest-2_vm2.mol2 : vm2 ligand conformer 8
          23          22           1
SMALL
USER_CHARGES
 
@<TRIPOS>ATOM
       1    N1      19.399248   18.211797   26.066653 N.4        1 MOL1        -0.5940
       2    H1      19.187901   18.558687   27.008503 H          1 MOL1         0.3649
       3    H2      20.261452   17.661971   26.138488 H          1 MOL1         0.3649
       4    H3      18.647631   17.562549   25.812934 H          1 MOL1         0.3649
       5    C1      19.531398   19.342856   25.067038 C.3        1 MOL1         0.0207
       6    H4      20.325979   20.008816   25.414339 H          1 MOL1         0.0950
       7    H5      18.591649   19.901741   25.063502 H          1 MOL1         0.0950
       8    C2      19.849597   18.855738   23.642230 C.3        1 MOL1        -0.1415
       9    H6      20.785647   18.281652   23.653787 H          1 MOL1         0.0976
      10    H7      19.055395   18.174292   23.312436 H          1 MOL1         0.0976
      11    C3      19.977913   20.041687   22.657326 C.3        1 MOL1        -0.1375
      12    H8      20.719538   20.751745   23.049175 H          1 MOL1         0.0976
      13    H9      19.025311   20.587330   22.608180 H          1 MOL1         0.0976
      14    C4      20.408516   19.619656   21.230838 C.3        1 MOL1        -0.1375
      15    H10     20.587175   20.527717   20.638443 H          1 MOL1         0.0976
      16    H11     21.369516   19.089004   21.277836 H          1 MOL1         0.0976
      17    C5      19.363238   18.742223   20.501998 C.3        1 MOL1        -0.1350
      18    H12     18.388573   19.249950   20.500439 H          1 MOL1         0.0976
      19    H13     19.226854   17.792199   21.035449 H          1 MOL1         0.0976
      20    C6      19.786090   18.443042   19.047916 C.3        1 MOL1        -0.2365
      21    H14     19.035757   17.817768   18.546846 H          1 MOL1         0.0987
      22    H15     20.744525   17.908508   19.017825 H          1 MOL1         0.0987
      23    H16     19.892993   19.369526   18.468765 H          1 MOL1         0.0987
@<TRIPOS>BOND
    1     1     2    1
    2     1     3    1
    3     1     4    1
    4     1     5    1
    5     5     6    1
    6     5     7    1
    7     5     8    1
    8     8     9    1
    9     8    10    1
   10     8    11    1
   11    11    12    1
   12    11    13    1
   13    11    14    1
   14    14    15    1
   15    14    16    1
   16    14    17    1
   17    17    18    1
   18    17    19    1
   19    17    20    1
   20    20    21    1
   21    20    22    1
   22    20    23    1
@<TRIPOS>SUBSTRUCTURE
       1 MOL1            1 RESIDUE      1      MOL     
@<SCITEGIC>MOL_PROPERTY
VM2 Rank
SciTegic.value.IntegerValue
8

@<SCITEGIC>MOL_PROPERTY
Conf_Id
SciTegic.value.IntegerValue
679

@<SCITEGIC>MOL_PROPERTY
Probability
SciTegic.value.DoubleValue
3.53

@<SCITEGIC>MOL_PROPERTY
Sum Probability
SciTegic.value.DoubleValue
48.92

@<SCITEGIC>MOL_PROPERTY
Delta G
SciTegic.value.DoubleValue
0.728

@<SCITEGIC>MOL_PROPERTY
G
SciTegic.value.DoubleValue
38.644

@<SCITEGIC>MOL_PROPERTY
E
SciTegic.value.DoubleValue
11.025

@<SCITEGIC>MOL_PROPERTY
-TS
SciTegic.value.DoubleValue
27.619

@<SCITEGIC>MOL_PROPERTY
U+W
SciTegic.value.DoubleValue
-7.754

@<SCITEGIC>MOL_PROPERTY
U
SciTegic.value.DoubleValue
47.562

@<SCITEGIC>MOL_PROPERTY
W
SciTegic.value.DoubleValue
-55.316

@<SCITEGIC>MOL_PROPERTY
W(PB)
SciTegic.value.DoubleValue
-57.472

@<SCITEGIC>MOL_PROPERTY
W(SA)
SciTegic.value.DoubleValue
2.156

@<SCITEGIC>MOL_PROPERTY
Valence
SciTegic.value.DoubleValue
2.273

@<SCITEGIC>MOL_PROPERTY
Coulomb
SciTegic.value.DoubleValue
44.723

@<SCITEGIC>MOL_PROPERTY
VdW
SciTegic.value.DoubleValue
0.566

@<SCITEGIC>MOL_PROPERTY
VdW6
SciTegic.value.DoubleValue
-5.266

@<SCITEGIC>MOL_PROPERTY
VdW12
SciTegic.value.DoubleValue
5.832

@<SCITEGIC>MOL_PROPERTY
Bond
SciTegic.value.DoubleValue
0.151

@<SCITEGIC>MOL_PROPERTY
Angle
SciTegic.value.DoubleValue
0.657

@<SCITEGIC>MOL_PROPERTY
Pdih
SciTegic.value.DoubleValue
1.466

@<SCITEGIC>MOL_PROPERTY
Idih
SciTegic.value.DoubleValue
0.000

@<SCITEGIC>MOL_PROPERTY
Tether
SciTegic.value.DoubleValue
0.000

@<TRIPOS>MOLECULE
guest-2_vm2.mol2 : vm2 ligand conformer 9
          23          22           1
SMALL
USER_CHARGES
 
@<TRIPOS>ATOM
       1    N1      20.327463   18.597872   26.108994 N.4        1 MOL1        -0.5940
       2    H1      21.334418   18.680144   25.935500 H          1 MOL1         0.3649
       3    H2      20.105911   17.597233   26.131376 H          1 MOL1         0.3649
       4    H3      20.157102   18.961792   27.052721 H          1 MOL1         0.3649
       5    C1      19.511545   19.334576   25.066147 C.3        1 MOL1         0.0207
       6    H4      19.775759   20.394310   25.117592 H          1 MOL1         0.0950
       7    H5      18.455334   19.230588   25.328990 H          1 MOL1         0.0950
       8    C2      19.743718   18.811731   23.637392 C.3        1 MOL1        -0.1415
       9    H6      20.809242   18.904074   23.392396 H          1 MOL1         0.0976
      10    H7      19.492359   17.743602   23.594758 H          1 MOL1         0.0976
      11    C3      18.890319   19.589269   22.607770 C.3        1 MOL1        -0.1375
      12    H8      19.176441   20.650247   22.615041 H          1 MOL1         0.0976
      13    H9      17.836645   19.552446   22.917847 H          1 MOL1         0.0976
      14    C4      18.997457   19.032650   21.166559 C.3        1 MOL1        -0.1375
      15    H10     18.695109   17.976336   21.156060 H          1 MOL1         0.0976
      16    H11     18.274952   19.565744   20.533137 H          1 MOL1         0.0976
      17    C5      20.408854   19.177411   20.549551 C.3        1 MOL1        -0.1350
      18    H12     21.136023   18.586879   21.122450 H          1 MOL1         0.0976
      19    H13     20.733392   20.225813   20.606910 H          1 MOL1         0.0976
      20    C6      20.436644   18.713491   19.077588 C.3        1 MOL1        -0.2365
      21    H14     21.444820   18.819970   18.656540 H          1 MOL1         0.0987
      22    H15     19.750331   19.309719   18.462198 H          1 MOL1         0.0987
      23    H16     20.144983   17.658674   18.990830 H          1 MOL1         0.0987
@<TRIPOS>BOND
    1     1     2    1
    2     1     3    1
    3     1     4    1
    4     1     5    1
    5     5     6    1
    6     5     7    1
    7     5     8    1
    8     8     9    1
    9     8    10    1
   10     8    11    1
   11    11    12    1
   12    11    13    1
   13    11    14    1
   14    14    15    1
   15    14    16    1
   16    14    17    1
   17    17    18    1
   18    17    19    1
   19    17    20    1
   20    20    21    1
   21    20    22    1
   22    20    23    1
@<TRIPOS>SUBSTRUCTURE
       1 MOL1            1 RESIDUE      1      MOL     
@<SCITEGIC>MOL_PROPERTY
VM2 Rank
SciTegic.value.IntegerValue
9

@<SCITEGIC>MOL_PROPERTY
Conf_Id
SciTegic.value.IntegerValue
511

@<SCITEGIC>MOL_PROPERTY
Probability
SciTegic.value.DoubleValue
3.49

@<SCITEGIC>MOL_PROPERTY
Sum Probability
SciTegic.value.DoubleValue
52.41

@<SCITEGIC>MOL_PROPERTY
Delta G
SciTegic.value.DoubleValue
0.735

@<SCITEGIC>MOL_PROPERTY
G
SciTegic.value.DoubleValue
38.652

@<SCITEGIC>MOL_PROPERTY
E
SciTegic.value.DoubleValue
11.032

@<SCITEGIC>MOL_PROPERTY
-TS
SciTegic.value.DoubleValue
27.619

@<SCITEGIC>MOL_PROPERTY
U+W
SciTegic.value.DoubleValue
-7.747

@<SCITEGIC>MOL_PROPERTY
U
SciTegic.value.DoubleValue
47.562

@<SCITEGIC>MOL_PROPERTY
W
SciTegic.value.DoubleValue
-55.309

@<SCITEGIC>MOL_PROPERTY
W(PB)
SciTegic.value.DoubleValue
-57.453

@<SCITEGIC>MOL_PROPERTY
W(SA)
SciTegic.value.DoubleValue
2.144

@<SCITEGIC>MOL_PROPERTY
Valence
SciTegic.value.DoubleValue
2.273

@<SCITEGIC>MOL_PROPERTY
Coulomb
SciTegic.value.DoubleValue
44.723

@<SCITEGIC>MOL_PROPERTY
VdW
SciTegic.value.DoubleValue
0.566

@<SCITEGIC>MOL_PROPERTY
VdW6
SciTegic.value.DoubleValue
-5.266

@<SCITEGIC>MOL_PROPERTY
VdW12
SciTegic.value.DoubleValue
5.832

@<SCITEGIC>MOL_PROPERTY
Bond
SciTegic.value.DoubleValue
0.151

@<SCITEGIC>MOL_PROPERTY
Angle
SciTegic.value.DoubleValue
0.657

@<SCITEGIC>MOL_PROPERTY
Pdih
SciTegic.value.DoubleValue
1.466

@<SCITEGIC>MOL_PROPERTY
Idih
SciTegic.value.DoubleValue
0.000

@<SCITEGIC>MOL_PROPERTY
Tether
SciTegic.value.DoubleValue
0.000

@<TRIPOS>MOLECULE
guest-2_vm2.mol2 : vm2 ligand conformer 10
          23          22           1
SMALL
USER_CHARGES
 
@<TRIPOS>ATOM
       1    N1      19.890479   19.972575   25.596760 N.4        1 MOL1        -0.5940
       2    H1      18.905236   20.170985   25.798257 H          1 MOL1         0.3649
       3    H2      20.201616   20.657754   24.901597 H          1 MOL1         0.3649
       4    H3      20.415200   20.159990   26.457873 H          1 MOL1         0.3649
       5    C1      20.091624   18.549380   25.113798 C.3        1 MOL1         0.0207
       6    H4      19.777517   17.878826   25.918333 H          1 MOL1         0.0950
       7    H5      21.160558   18.397215   24.941604 H          1 MOL1         0.0950
       8    C2      19.306376   18.211537   23.831576 C.3        1 MOL1        -0.1415
       9    H6      19.434168   17.142014   23.617625 H          1 MOL1         0.0976
      10    H7      18.233882   18.370002   24.006486 H          1 MOL1         0.0976
      11    C3      19.773051   19.037319   22.609227 C.3        1 MOL1        -0.1375
      12    H8      20.853273   18.895626   22.472471 H          1 MOL1         0.0976
      13    H9      19.611261   20.106986   22.797369 H          1 MOL1         0.0976
      14    C4      19.020728   18.627317   21.320322 C.3        1 MOL1        -0.1375
      15    H10     19.223482   17.571786   21.092168 H          1 MOL1         0.0976
      16    H11     17.938842   18.702797   21.497048 H          1 MOL1         0.0976
      17    C5      19.379691   19.498981   20.092532 C.3        1 MOL1        -0.1350
      18    H12     19.156085   20.553409   20.306915 H          1 MOL1         0.0976
      19    H13     18.729746   19.211645   19.254167 H          1 MOL1         0.0976
      20    C6      20.854051   19.359890   19.649786 C.3        1 MOL1        -0.2365
      21    H14     21.032113   19.923699   18.724935 H          1 MOL1         0.0987
      22    H15     21.111305   18.310195   19.457499 H          1 MOL1         0.0987
      23    H16     21.542097   19.749209   20.410342 H          1 MOL1         0.0987
@<TRIPOS>BOND
    1     1     2    1
    2     1     3    1
    3     1     4    1
    4     1     5    1
    5     5     6    1
    6     5     7    1
    7     5     8    1
    8     8     9    1
    9     8    10    1
   10     8    11    1
   11    11    12    1
   12    11    13    1
   13    11    14    1
   14    14    15    1
   15    14    16    1
   16    14    17    1
   17    17    18    1
   18    17    19    1
   19    17    20    1
   20    20    21    1
   21    20    22    1
   22    20    23    1
@<TRIPOS>SUBSTRUCTURE
       1 MOL1            1 RESIDUE      1      MOL     
@<SCITEGIC>MOL_PROPERTY
VM2 Rank
SciTegic.value.IntegerValue
10

@<SCITEGIC>MOL_PROPERTY
Conf_Id
SciTegic.value.IntegerValue
713

@<SCITEGIC>MOL_PROPERTY
Probability
SciTegic.value.DoubleValue
2.74

@<SCITEGIC>MOL_PROPERTY
Sum Probability
SciTegic.value.DoubleValue
55.16

@<SCITEGIC>MOL_PROPERTY
Delta G
SciTegic.value.DoubleValue
0.879

@<SCITEGIC>MOL_PROPERTY
G
SciTegic.value.DoubleValue
38.795

@<SCITEGIC>MOL_PROPERTY
E
SciTegic.value.DoubleValue
11.061

@<SCITEGIC>MOL_PROPERTY
-TS
SciTegic.value.DoubleValue
27.734

@<SCITEGIC>MOL_PROPERTY
U+W
SciTegic.value.DoubleValue
-7.718

@<SCITEGIC>MOL_PROPERTY
U
SciTegic.value.DoubleValue
47.955

@<SCITEGIC>MOL_PROPERTY
W
SciTegic.value.DoubleValue
-55.674

@<SCITEGIC>MOL_PROPERTY
W(PB)
SciTegic.value.DoubleValue
-57.794

@<SCITEGIC>MOL_PROPERTY
W(SA)
SciTegic.value.DoubleValue
2.120

@<SCITEGIC>MOL_PROPERTY
Valence
SciTegic.value.DoubleValue
2.340

@<SCITEGIC>MOL_PROPERTY
Coulomb
SciTegic.value.DoubleValue
44.939

@<SCITEGIC>MOL_PROPERTY
VdW
SciTegic.value.DoubleValue
0.677

@<SCITEGIC>MOL_PROPERTY
VdW6
SciTegic.value.DoubleValue
-5.763

@<SCITEGIC>MOL_PROPERTY
VdW12
SciTegic.value.DoubleValue
6.440

@<SCITEGIC>MOL_PROPERTY
Bond
SciTegic.value.DoubleValue
0.168

@<SCITEGIC>MOL_PROPERTY
Angle
SciTegic.value.DoubleValue
0.673

@<SCITEGIC>MOL_PROPERTY
Pdih
SciTegic.value.DoubleValue
1.499

@<SCITEGIC>MOL_PROPERTY
Idih
SciTegic.value.DoubleValue
0.000

@<SCITEGIC>MOL_PROPERTY
Tether
SciTegic.value.DoubleValue
0.000

@<TRIPOS>MOLECULE
guest-2_vm2.mol2 : vm2 ligand conformer 11
          23          22           1
SMALL
USER_CHARGES
 
@<TRIPOS>ATOM
       1    N1      19.146703   17.899331   25.364697 N.4        1 MOL1        -0.5940
       2    H1      19.969393   17.293267   25.445617 H          1 MOL1         0.3649
       3    H2      18.588983   17.550336   24.579443 H          1 MOL1         0.3649
       4    H3      18.588461   17.760198   26.213816 H          1 MOL1         0.3649
       5    C1      19.533902   19.353495   25.178183 C.3        1 MOL1         0.0207
       6    H4      20.087336   19.665631   26.068051 H          1 MOL1         0.0950
       7    H5      18.615965   19.944945   25.123380 H          1 MOL1         0.0950
       8    C2      20.393466   19.612537   23.925573 C.3        1 MOL1        -0.1415
       9    H6      20.707608   20.664772   23.932373 H          1 MOL1         0.0976
      10    H7      21.310956   19.011487   23.979685 H          1 MOL1         0.0976
      11    C3      19.638883   19.310982   22.608875 C.3        1 MOL1        -0.1375
      12    H8      18.709552   19.896459   22.577623 H          1 MOL1         0.0976
      13    H9      19.351447   18.252394   22.586016 H          1 MOL1         0.0976
      14    C4      20.500111   19.642346   21.366309 C.3        1 MOL1        -0.1375
      15    H10     20.838102   20.685848   21.431339 H          1 MOL1         0.0976
      16    H11     21.407782   19.023108   21.368599 H          1 MOL1         0.0976
      17    C5      19.748866   19.452950   20.026178 C.3        1 MOL1        -0.1350
      18    H12     20.391116   19.809783   19.208846 H          1 MOL1         0.0976
      19    H13     18.851219   20.086805   20.010315 H          1 MOL1         0.0976
      20    C6      19.354069   17.985360   19.744185 C.3        1 MOL1        -0.2365
      21    H14     20.230480   17.325651   19.785487 H          1 MOL1         0.0987
      22    H15     18.911145   17.892337   18.744131 H          1 MOL1         0.0987
      23    H16     18.613981   17.620524   20.467027 H          1 MOL1         0.0987
@<TRIPOS>BOND
    1     1     2    1
    2     1     3    1
    3     1     4    1
    4     1     5    1
    5     5     6    1
    6     5     7    1
    7     5     8    1
    8     8     9    1
    9     8    10    1
   10     8    11    1
   11    11    12    1
   12    11    13    1
   13    11    14    1
   14    14    15    1
   15    14    16    1
   16    14    17    1
   17    17    18    1
   18    17    19    1
   19    17    20    1
   20    20    21    1
   21    20    22    1
   22    20    23    1
@<TRIPOS>SUBSTRUCTURE
       1 MOL1            1 RESIDUE      1      MOL     
@<SCITEGIC>MOL_PROPERTY
VM2 Rank
SciTegic.value.IntegerValue
11

@<SCITEGIC>MOL_PROPERTY
Conf_Id
SciTegic.value.IntegerValue
777

@<SCITEGIC>MOL_PROPERTY
Probability
SciTegic.value.DoubleValue
2.57

@<SCITEGIC>MOL_PROPERTY
Sum Probability
SciTegic.value.DoubleValue
57.72

@<SCITEGIC>MOL_PROPERTY
Delta G
SciTegic.value.DoubleValue
0.919

@<SCITEGIC>MOL_PROPERTY
G
SciTegic.value.DoubleValue
38.835

@<SCITEGIC>MOL_PROPERTY
E
SciTegic.value.DoubleValue
11.107

@<SCITEGIC>MOL_PROPERTY
-TS
SciTegic.value.DoubleValue
27.728

@<SCITEGIC>MOL_PROPERTY
U+W
SciTegic.value.DoubleValue
-7.672

@<SCITEGIC>MOL_PROPERTY
U
SciTegic.value.DoubleValue
48.083

@<SCITEGIC>MOL_PROPERTY
W
SciTegic.value.DoubleValue
-55.756

@<SCITEGIC>MOL_PROPERTY
W(PB)
SciTegic.value.DoubleValue
-57.894

@<SCITEGIC>MOL_PROPERTY
W(SA)
SciTegic.value.DoubleValue
2.138

@<SCITEGIC>MOL_PROPERTY
Valence
SciTegic.value.DoubleValue
2.338

@<SCITEGIC>MOL_PROPERTY
Coulomb
SciTegic.value.DoubleValue
45.069

@<SCITEGIC>MOL_PROPERTY
VdW
SciTegic.value.DoubleValue
0.676

@<SCITEGIC>MOL_PROPERTY
VdW6
SciTegic.value.DoubleValue
-5.773

@<SCITEGIC>MOL_PROPERTY
VdW12
SciTegic.value.DoubleValue
6.449

@<SCITEGIC>MOL_PROPERTY
Bond
SciTegic.value.DoubleValue
0.170

@<SCITEGIC>MOL_PROPERTY
Angle
SciTegic.value.DoubleValue
0.671

@<SCITEGIC>MOL_PROPERTY
Pdih
SciTegic.value.DoubleValue
1.498

@<SCITEGIC>MOL_PROPERTY
Idih
SciTegic.value.DoubleValue
0.000

@<SCITEGIC>MOL_PROPERTY
Tether
SciTegic.value.DoubleValue
0.000

@<TRIPOS>MOLECULE
guest-2_vm2.mol2 : vm2 ligand conformer 12
          23          22           1
SMALL
USER_CHARGES
 
@<TRIPOS>ATOM
       1    N1      20.490660   18.712633   25.675778 N.4        1 MOL1        -0.5940
       2    H1      20.504570   18.805320   26.697136 H          1 MOL1         0.3649
       3    H2      21.157818   19.395567   25.304207 H          1 MOL1         0.3649
       4    H3      20.856143   17.780731   25.455378 H          1 MOL1         0.3649
       5    C1      19.099041   18.920805   25.110828 C.3        1 MOL1         0.0207
       6    H4      18.760426   19.918768   25.402076 H          1 MOL1         0.0950
       7    H5      18.437512   18.186663   25.578794 H          1 MOL1         0.0950
       8    C2      19.023302   18.773964   23.578769 C.3        1 MOL1        -0.1415
       9    H6      19.362321   17.768899   23.297801 H          1 MOL1         0.0976
      10    H7      17.970924   18.848410   23.274223 H          1 MOL1         0.0976
      11    C3      19.850556   19.853043   22.836196 C.3        1 MOL1        -0.1375
      12    H8      20.918239   19.731912   23.063082 H          1 MOL1         0.0976
      13    H9      19.564134   20.844461   23.213910 H          1 MOL1         0.0976
      14    C4      19.649603   19.836132   21.300840 C.3        1 MOL1        -0.1375
      15    H10     18.585796   19.980196   21.066611 H          1 MOL1         0.0976
      16    H11     20.178712   20.697806   20.870761 H          1 MOL1         0.0976
      17    C5      20.162182   18.542650   20.624270 C.3        1 MOL1        -0.1350
      18    H12     19.593433   17.675122   20.984412 H          1 MOL1         0.0976
      19    H13     21.212550   18.371414   20.898391 H          1 MOL1         0.0976
      20    C6      20.040656   18.617773   19.087319 C.3        1 MOL1        -0.2365
      21    H14     18.996036   18.758989   18.780634 H          1 MOL1         0.0987
      22    H15     20.405605   17.691992   18.623882 H          1 MOL1         0.0987
      23    H16     20.630916   19.451127   18.684422 H          1 MOL1         0.0987
@<TRIPOS>BOND
    1     1     2    1
    2     1     3    1
    3     1     4    1
    4     1     5    1
    5     5     6    1
    6     5     7    1
    7     5     8    1
    8     8     9    1
    9     8    10    1
   10     8    11    1
   11    11    12    1
   12    11    13    1
   13    11    14    1
   14    14    15    1
   15    14    16    1
   16    14    17    1
   17    17    18    1
   18    17    19    1
   19    17    20    1
   20    20    21    1
   21    20    22    1
   22    20    23    1
@<TRIPOS>SUBSTRUCTURE
       1 MOL1            1 RESIDUE      1      MOL     
@<SCITEGIC>MOL_PROPERTY
VM2 Rank
SciTegic.value.IntegerValue
12

@<SCITEGIC>MOL_PROPERTY
Conf_Id
SciTegic.value.IntegerValue
930

@<SCITEGIC>MOL_PROPERTY
Probability
SciTegic.value.DoubleValue
2.47

@<SCITEGIC>MOL_PROPERTY
Sum Probability
SciTegic.value.DoubleValue
60.19

@<SCITEGIC>MOL_PROPERTY
Delta G
SciTegic.value.DoubleValue
0.942

@<SCITEGIC>MOL_PROPERTY
G
SciTegic.value.DoubleValue
38.859

@<SCITEGIC>MOL_PROPERTY
E
SciTegic.value.DoubleValue
11.126

@<SCITEGIC>MOL_PROPERTY
-TS
SciTegic.value.DoubleValue
27.732

@<SCITEGIC>MOL_PROPERTY
U+W
SciTegic.value.DoubleValue
-7.653

@<SCITEGIC>MOL_PROPERTY
U
SciTegic.value.DoubleValue
48.113

@<SCITEGIC>MOL_PROPERTY
W
SciTegic.value.DoubleValue
-55.766

@<SCITEGIC>MOL_PROPERTY
W(PB)
SciTegic.value.DoubleValue
-57.863

@<SCITEGIC>MOL_PROPERTY
W(SA)
SciTegic.value.DoubleValue
2.097

@<SCITEGIC>MOL_PROPERTY
Valence
SciTegic.value.DoubleValue
2.372

@<SCITEGIC>MOL_PROPERTY
Coulomb
SciTegic.value.DoubleValue
45.091

@<SCITEGIC>MOL_PROPERTY
VdW
SciTegic.value.DoubleValue
0.650

@<SCITEGIC>MOL_PROPERTY
VdW6
SciTegic.value.DoubleValue
-5.797

@<SCITEGIC>MOL_PROPERTY
VdW12
SciTegic.value.DoubleValue
6.447

@<SCITEGIC>MOL_PROPERTY
Bond
SciTegic.value.DoubleValue
0.172

@<SCITEGIC>MOL_PROPERTY
Angle
SciTegic.value.DoubleValue
0.675

@<SCITEGIC>MOL_PROPERTY
Pdih
SciTegic.value.DoubleValue
1.524

@<SCITEGIC>MOL_PROPERTY
Idih
SciTegic.value.DoubleValue
0.000

@<SCITEGIC>MOL_PROPERTY
Tether
SciTegic.value.DoubleValue
0.000

@<TRIPOS>MOLECULE
guest-2_vm2.mol2 : vm2 ligand conformer 13
          23          22           1
SMALL
USER_CHARGES
 
@<TRIPOS>ATOM
       1    N1      18.999249   18.035474   25.160280 N.4        1 MOL1        -0.5940
       2    H1      18.430989   17.852321   24.327734 H          1 MOL1         0.3649
       3    H2      18.435319   18.613589   25.791424 H          1 MOL1         0.3649
       4    H3      19.145160   17.135202   25.629393 H          1 MOL1         0.3649
       5    C1      20.312210   18.705276   24.805481 C.3        1 MOL1         0.0207
       6    H4      20.875094   18.027178   24.158951 H          1 MOL1         0.0950
       7    H5      20.878582   18.838416   25.731239 H          1 MOL1         0.0950
       8    C2      20.143004   20.070913   24.108795 C.3        1 MOL1        -0.1415
       9    H6      19.616914   20.756784   24.786011 H          1 MOL1         0.0976
      10    H7      21.137062   20.507287   23.943572 H          1 MOL1         0.0976
      11    C3      19.385018   20.002028   22.759146 C.3        1 MOL1        -0.1375
      12    H8      19.295170   21.020652   22.357014 H          1 MOL1         0.0976
      13    H9      18.358514   19.648463   22.924594 H          1 MOL1         0.0976
      14    C4      20.085929   19.103737   21.711733 C.3        1 MOL1        -0.1375
      15    H10     21.119930   19.446449   21.567652 H          1 MOL1         0.0976
      16    H11     20.141719   18.070471   22.079344 H          1 MOL1         0.0976
      17    C5      19.345899   19.118832   20.355728 C.3        1 MOL1        -0.1350
      18    H12     19.292676   20.147731   19.972996 H          1 MOL1         0.0976
      19    H13     18.310129   18.778380   20.494244 H          1 MOL1         0.0976
      20    C6      20.044690   18.220739   19.312836 C.3        1 MOL1        -0.2365
      21    H14     21.073135   18.557347   19.127853 H          1 MOL1         0.0987
      22    H15     19.505393   18.244841   18.357007 H          1 MOL1         0.0987
      23    H16     20.082276   17.177328   19.652095 H          1 MOL1         0.0987
@<TRIPOS>BOND
    1     1     2    1
    2     1     3    1
    3     1     4    1
    4     1     5    1
    5     5     6    1
    6     5     7    1
    7     5     8    1
    8     8     9    1
    9     8    10    1
   10     8    11    1
   11    11    12    1
   12    11    13    1
   13    11    14    1
   14    14    15    1
   15    14    16    1
   16    14    17    1
   17    17    18    1
   18    17    19    1
   19    17    20    1
   20    20    21    1
   21    20    22    1
   22    20    23    1
@<TRIPOS>SUBSTRUCTURE
       1 MOL1            1 RESIDUE      1      MOL     
@<SCITEGIC>MOL_PROPERTY
VM2 Rank
SciTegic.value.IntegerValue
13

@<SCITEGIC>MOL_PROPERTY
Conf_Id
SciTegic.value.IntegerValue
192

@<SCITEGIC>MOL_PROPERTY
Probability
SciTegic.value.DoubleValue
2.44

@<SCITEGIC>MOL_PROPERTY
Sum Probability
SciTegic.value.DoubleValue
62.62

@<SCITEGIC>MOL_PROPERTY
Delta G
SciTegic.value.DoubleValue
0.950

@<SCITEGIC>MOL_PROPERTY
G
SciTegic.value.DoubleValue
38.866

@<SCITEGIC>MOL_PROPERTY
E
SciTegic.value.DoubleValue
11.063

@<SCITEGIC>MOL_PROPERTY
-TS
SciTegic.value.DoubleValue
27.803

@<SCITEGIC>MOL_PROPERTY
U+W
SciTegic.value.DoubleValue
-7.716

@<SCITEGIC>MOL_PROPERTY
U
SciTegic.value.DoubleValue
48.052

@<SCITEGIC>MOL_PROPERTY
W
SciTegic.value.DoubleValue
-55.768

@<SCITEGIC>MOL_PROPERTY
W(PB)
SciTegic.value.DoubleValue
-57.871

@<SCITEGIC>MOL_PROPERTY
W(SA)
SciTegic.value.DoubleValue
2.103

@<SCITEGIC>MOL_PROPERTY
Valence
SciTegic.value.DoubleValue
2.122

@<SCITEGIC>MOL_PROPERTY
Coulomb
SciTegic.value.DoubleValue
45.428

@<SCITEGIC>MOL_PROPERTY
VdW
SciTegic.value.DoubleValue
0.502

@<SCITEGIC>MOL_PROPERTY
VdW6
SciTegic.value.DoubleValue
-5.941

@<SCITEGIC>MOL_PROPERTY
VdW12
SciTegic.value.DoubleValue
6.443

@<SCITEGIC>MOL_PROPERTY
Bond
SciTegic.value.DoubleValue
0.160

@<SCITEGIC>MOL_PROPERTY
Angle
SciTegic.value.DoubleValue
0.629

@<SCITEGIC>MOL_PROPERTY
Pdih
SciTegic.value.DoubleValue
1.333

@<SCITEGIC>MOL_PROPERTY
Idih
SciTegic.value.DoubleValue
0.000

@<SCITEGIC>MOL_PROPERTY
Tether
SciTegic.value.DoubleValue
0.000

@<TRIPOS>MOLECULE
guest-2_vm2.mol2 : vm2 ligand conformer 14
          23          22           1
SMALL
USER_CHARGES
 
@<TRIPOS>ATOM
       1    N1      18.775641   19.512522   25.546099 N.4        1 MOL1        -0.5940
       2    H1      18.127607   19.802002   24.807330 H          1 MOL1         0.3649
       3    H2      19.315977   20.340353   25.817027 H          1 MOL1         0.3649
       4    H3      18.206425   19.248544   26.357446 H          1 MOL1         0.3649
       5    C1      19.672877   18.376553   25.094726 C.3        1 MOL1         0.0207
       6    H4      19.038624   17.521695   24.844993 H          1 MOL1         0.0950
       7    H5      20.304205   18.096014   25.942256 H          1 MOL1         0.0950
       8    C2      20.564638   18.730685   23.888824 C.3        1 MOL1        -0.1415
       9    H6      21.196775   19.592416   24.141352 H          1 MOL1         0.0976
      10    H7      21.243824   17.888663   23.699903 H          1 MOL1         0.0976
      11    C3      19.748775   19.027407   22.608134 C.3        1 MOL1        -0.1375
      12    H8      19.095463   19.894265   22.773970 H          1 MOL1         0.0976
      13    H9      19.096442   18.170898   22.392477 H          1 MOL1         0.0976
      14    C4      20.668622   19.307413   21.395350 C.3        1 MOL1        -0.1375
      15    H10     21.365521   20.116942   21.653037 H          1 MOL1         0.0976
      16    H11     21.286289   18.423095   21.186114 H          1 MOL1         0.0976
      17    C5      19.896938   19.712452   20.116065 C.3        1 MOL1        -0.1350
      18    H12     20.623169   19.993056   19.340375 H          1 MOL1         0.0976
      19    H13     19.295775   20.611063   20.313242 H          1 MOL1         0.0976
      20    C6      18.988509   18.589967   19.564802 C.3        1 MOL1        -0.2365
      21    H14     18.169613   18.357392   20.256713 H          1 MOL1         0.0987
      22    H15     19.560871   17.670310   19.386901 H          1 MOL1         0.0987
      23    H16     18.537754   18.894230   18.611293 H          1 MOL1         0.0987
@<TRIPOS>BOND
    1     1     2    1
    2     1     3    1
    3     1     4    1
    4     1     5    1
    5     5     6    1
    6     5     7    1
    7     5     8    1
    8     8     9    1
    9     8    10    1
   10     8    11    1
   11    11    12    1
   12    11    13    1
   13    11    14    1
   14    14    15    1
   15    14    16    1
   16    14    17    1
   17    17    18    1
   18    17    19    1
   19    17    20    1
   20    20    21    1
   21    20    22    1
   22    20    23    1
@<TRIPOS>SUBSTRUCTURE
       1 MOL1            1 RESIDUE      1      MOL     
@<SCITEGIC>MOL_PROPERTY
VM2 Rank
SciTegic.value.IntegerValue
14

@<SCITEGIC>MOL_PROPERTY
Conf_Id
SciTegic.value.IntegerValue
889

@<SCITEGIC>MOL_PROPERTY
Probability
SciTegic.value.DoubleValue
2.42

@<SCITEGIC>MOL_PROPERTY
Sum Probability
SciTegic.value.DoubleValue
65.04

@<SCITEGIC>MOL_PROPERTY
Delta G
SciTegic.value.DoubleValue
0.954

@<SCITEGIC>MOL_PROPERTY
G
SciTegic.value.DoubleValue
38.870

@<SCITEGIC>MOL_PROPERTY
E
SciTegic.value.DoubleValue
11.136

@<SCITEGIC>MOL_PROPERTY
-TS
SciTegic.value.DoubleValue
27.734

@<SCITEGIC>MOL_PROPERTY
U+W
SciTegic.value.DoubleValue
-7.644

@<SCITEGIC>MOL_PROPERTY
U
SciTegic.value.DoubleValue
47.955

@<SCITEGIC>MOL_PROPERTY
W
SciTegic.value.DoubleValue
-55.599

@<SCITEGIC>MOL_PROPERTY
W(PB)
SciTegic.value.DoubleValue
-57.739

@<SCITEGIC>MOL_PROPERTY
W(SA)
SciTegic.value.DoubleValue
2.140

@<SCITEGIC>MOL_PROPERTY
Valence
SciTegic.value.DoubleValue
2.340

@<SCITEGIC>MOL_PROPERTY
Coulomb
SciTegic.value.DoubleValue
44.939

@<SCITEGIC>MOL_PROPERTY
VdW
SciTegic.value.DoubleValue
0.677

@<SCITEGIC>MOL_PROPERTY
VdW6
SciTegic.value.DoubleValue
-5.763

@<SCITEGIC>MOL_PROPERTY
VdW12
SciTegic.value.DoubleValue
6.440

@<SCITEGIC>MOL_PROPERTY
Bond
SciTegic.value.DoubleValue
0.168

@<SCITEGIC>MOL_PROPERTY
Angle
SciTegic.value.DoubleValue
0.673

@<SCITEGIC>MOL_PROPERTY
Pdih
SciTegic.value.DoubleValue
1.499

@<SCITEGIC>MOL_PROPERTY
Idih
SciTegic.value.DoubleValue
0.000

@<SCITEGIC>MOL_PROPERTY
Tether
SciTegic.value.DoubleValue
0.000

@<TRIPOS>MOLECULE
guest-2_vm2.mol2 : vm2 ligand conformer 15
          23          22           1
SMALL
USER_CHARGES
 
@<TRIPOS>ATOM
       1    N1      20.803378   18.786159   25.242786 N.4        1 MOL1        -0.5940
       2    H1      20.740714   19.572843   25.896834 H          1 MOL1         0.3649
       3    H2      21.396612   19.086296   24.463308 H          1 MOL1         0.3649
       4    H3      21.301990   18.032642   25.728011 H          1 MOL1         0.3649
       5    C1      19.435214   18.340383   24.765507 C.3        1 MOL1         0.0207
       6    H4      18.871484   18.003295   25.639642 H          1 MOL1         0.0950
       7    H5      19.570586   17.484413   24.099438 H          1 MOL1         0.0950
       8    C2      18.641122   19.446033   24.040307 C.3        1 MOL1        -0.1415
       9    H6      17.647242   19.055376   23.784452 H          1 MOL1         0.0976
      10    H7      18.472220   20.280515   24.733793 H          1 MOL1         0.0976
      11    C3      19.326654   19.977664   22.756465 C.3        1 MOL1        -0.1375
      12    H8      20.284702   20.449626   23.012373 H          1 MOL1         0.0976
      13    H9      18.699746   20.772893   22.329881 H          1 MOL1         0.0976
      14    C4      19.551860   18.881528   21.687332 C.3        1 MOL1        -0.1375
      15    H10     20.215708   18.101180   22.082624 H          1 MOL1         0.0976
      16    H11     18.594573   18.395925   21.452472 H          1 MOL1         0.0976
      17    C5      20.165829   19.459918   20.393065 C.3        1 MOL1        -0.1350
      18    H12     21.123220   19.948493   20.622436 H          1 MOL1         0.0976
      19    H13     19.504475   20.235904   19.982692 H          1 MOL1         0.0976
      20    C6      20.391943   18.365315   19.328537 C.3        1 MOL1        -0.2365
      21    H14     21.077938   17.591577   19.697255 H          1 MOL1         0.0987
      22    H15     20.827571   18.795030   18.417161 H          1 MOL1         0.0987
      23    H16     19.446019   17.880709   19.053568 H          1 MOL1         0.0987
@<TRIPOS>BOND
    1     1     2    1
    2     1     3    1
    3     1     4    1
    4     1     5    1
    5     5     6    1
    6     5     7    1
    7     5     8    1
    8     8     9    1
    9     8    10    1
   10     8    11    1
   11    11    12    1
   12    11    13    1
   13    11    14    1
   14    14    15    1
   15    14    16    1
   16    14    17    1
   17    17    18    1
   18    17    19    1
   19    17    20    1
   20    20    21    1
   21    20    22    1
   22    20    23    1
@<TRIPOS>SUBSTRUCTURE
       1 MOL1            1 RESIDUE      1      MOL     
@<SCITEGIC>MOL_PROPERTY
VM2 Rank
SciTegic.value.IntegerValue
15

@<SCITEGIC>MOL_PROPERTY
Conf_Id
SciTegic.value.IntegerValue
922

@<SCITEGIC>MOL_PROPERTY
Probability
SciTegic.value.DoubleValue
2.40

@<SCITEGIC>MOL_PROPERTY
Sum Probability
SciTegic.value.DoubleValue
67.45

@<SCITEGIC>MOL_PROPERTY
Delta G
SciTegic.value.DoubleValue
0.958

@<SCITEGIC>MOL_PROPERTY
G
SciTegic.value.DoubleValue
38.874

@<SCITEGIC>MOL_PROPERTY
E
SciTegic.value.DoubleValue
11.071

@<SCITEGIC>MOL_PROPERTY
-TS
SciTegic.value.DoubleValue
27.803

@<SCITEGIC>MOL_PROPERTY
U+W
SciTegic.value.DoubleValue
-7.708

@<SCITEGIC>MOL_PROPERTY
U
SciTegic.value.DoubleValue
48.051

@<SCITEGIC>MOL_PROPERTY
W
SciTegic.value.DoubleValue
-55.760

@<SCITEGIC>MOL_PROPERTY
W(PB)
SciTegic.value.DoubleValue
-57.854

@<SCITEGIC>MOL_PROPERTY
W(SA)
SciTegic.value.DoubleValue
2.094

@<SCITEGIC>MOL_PROPERTY
Valence
SciTegic.value.DoubleValue
2.122

@<SCITEGIC>MOL_PROPERTY
Coulomb
SciTegic.value.DoubleValue
45.428

@<SCITEGIC>MOL_PROPERTY
VdW
SciTegic.value.DoubleValue
0.502

@<SCITEGIC>MOL_PROPERTY
VdW6
SciTegic.value.DoubleValue
-5.941

@<SCITEGIC>MOL_PROPERTY
VdW12
SciTegic.value.DoubleValue
6.443

@<SCITEGIC>MOL_PROPERTY
Bond
SciTegic.value.DoubleValue
0.160

@<SCITEGIC>MOL_PROPERTY
Angle
SciTegic.value.DoubleValue
0.629

@<SCITEGIC>MOL_PROPERTY
Pdih
SciTegic.value.DoubleValue
1.333

@<SCITEGIC>MOL_PROPERTY
Idih
SciTegic.value.DoubleValue
0.000

@<SCITEGIC>MOL_PROPERTY
Tether
SciTegic.value.DoubleValue
0.000

@<TRIPOS>MOLECULE
guest-2_vm2.mol2 : vm2 ligand conformer 16
          23          22           1
SMALL
USER_CHARGES
 
@<TRIPOS>ATOM
       1    N1      20.780483   18.578995   25.439217 N.4        1 MOL1        -0.5940
       2    H1      21.480033   18.753032   24.711335 H          1 MOL1         0.3649
       3    H2      20.625806   17.566355   25.475516 H          1 MOL1         0.3649
       4    H3      21.204901   18.848615   26.333179 H          1 MOL1         0.3649
       5    C1      19.493640   19.336788   25.176350 C.3        1 MOL1         0.0207
       6    H4      19.723520   20.405700   25.173832 H          1 MOL1         0.0950
       7    H5      18.815125   19.136498   26.010067 H          1 MOL1         0.0950
       8    C2      18.804031   18.951372   23.853141 C.3        1 MOL1        -0.1415
       9    H6      18.581264   17.876037   23.855337 H          1 MOL1         0.0976
      10    H7      17.838056   19.471143   23.801563 H          1 MOL1         0.0976
      11    C3      19.649370   19.315236   22.609345 C.3        1 MOL1        -0.1375
      12    H8      20.602333   18.772577   22.643035 H          1 MOL1         0.0976
      13    H9      19.889715   20.387228   22.631358 H          1 MOL1         0.0976
      14    C4      18.906585   18.979373   21.293687 C.3        1 MOL1        -0.1375
      15    H10     18.707724   17.899809   21.245518 H          1 MOL1         0.0976
      16    H11     17.925479   19.474117   21.298639 H          1 MOL1         0.0976
      17    C5      19.671905   19.420950   20.022669 C.3        1 MOL1        -0.1350
      18    H12     19.854415   20.504170   20.056064 H          1 MOL1         0.0976
      19    H13     19.031829   19.244347   19.146905 H          1 MOL1         0.0976
      20    C6      21.009986   18.674287   19.819591 C.3        1 MOL1        -0.2365
      21    H14     21.731704   18.917516   20.609083 H          1 MOL1         0.0987
      22    H15     21.464315   18.954629   18.860459 H          1 MOL1         0.0987
      23    H16     20.858709   17.587042   19.813952 H          1 MOL1         0.0987
@<TRIPOS>BOND
    1     1     2    1
    2     1     3    1
    3     1     4    1
    4     1     5    1
    5     5     6    1
    6     5     7    1
    7     5     8    1
    8     8     9    1
    9     8    10    1
   10     8    11    1
   11    11    12    1
   12    11    13    1
   13    11    14    1
   14    14    15    1
   15    14    16    1
   16    14    17    1
   17    17    18    1
   18    17    19    1
   19    17    20    1
   20    20    21    1
   21    20    22    1
   22    20    23    1
@<TRIPOS>SUBSTRUCTURE
       1 MOL1            1 RESIDUE      1      MOL     
@<SCITEGIC>MOL_PROPERTY
VM2 Rank
SciTegic.value.IntegerValue
16

@<SCITEGIC>MOL_PROPERTY
Conf_Id
SciTegic.value.IntegerValue
586

@<SCITEGIC>MOL_PROPERTY
Probability
SciTegic.value.DoubleValue
2.39

@<SCITEGIC>MOL_PROPERTY
Sum Probability
SciTegic.value.DoubleValue
69.84

@<SCITEGIC>MOL_PROPERTY
Delta G
SciTegic.value.DoubleValue
0.961

@<SCITEGIC>MOL_PROPERTY
G
SciTegic.value.DoubleValue
38.877

@<SCITEGIC>MOL_PROPERTY
E
SciTegic.value.DoubleValue
11.149

@<SCITEGIC>MOL_PROPERTY
-TS
SciTegic.value.DoubleValue
27.728

@<SCITEGIC>MOL_PROPERTY
U+W
SciTegic.value.DoubleValue
-7.631

@<SCITEGIC>MOL_PROPERTY
U
SciTegic.value.DoubleValue
48.083

@<SCITEGIC>MOL_PROPERTY
W
SciTegic.value.DoubleValue
-55.714

@<SCITEGIC>MOL_PROPERTY
W(PB)
SciTegic.value.DoubleValue
-57.844

@<SCITEGIC>MOL_PROPERTY
W(SA)
SciTegic.value.DoubleValue
2.130

@<SCITEGIC>MOL_PROPERTY
Valence
SciTegic.value.DoubleValue
2.338

@<SCITEGIC>MOL_PROPERTY
Coulomb
SciTegic.value.DoubleValue
45.069

@<SCITEGIC>MOL_PROPERTY
VdW
SciTegic.value.DoubleValue
0.676

@<SCITEGIC>MOL_PROPERTY
VdW6
SciTegic.value.DoubleValue
-5.773

@<SCITEGIC>MOL_PROPERTY
VdW12
SciTegic.value.DoubleValue
6.449

@<SCITEGIC>MOL_PROPERTY
Bond
SciTegic.value.DoubleValue
0.170

@<SCITEGIC>MOL_PROPERTY
Angle
SciTegic.value.DoubleValue
0.671

@<SCITEGIC>MOL_PROPERTY
Pdih
SciTegic.value.DoubleValue
1.498

@<SCITEGIC>MOL_PROPERTY
Idih
SciTegic.value.DoubleValue
0.000

@<SCITEGIC>MOL_PROPERTY
Tether
SciTegic.value.DoubleValue
0.000

@<TRIPOS>MOLECULE
guest-2_vm2.mol2 : vm2 ligand conformer 17
          23          22           1
SMALL
USER_CHARGES
 
@<TRIPOS>ATOM
       1    N1      19.238772   18.190793   25.618970 N.4        1 MOL1        -0.5940
       2    H1      18.315634   18.210667   25.175140 H          1 MOL1         0.3649
       3    H2      19.084362   18.213317   26.632681 H          1 MOL1         0.3649
       4    H3      19.660515   17.282346   25.401136 H          1 MOL1         0.3649
       5    C1      20.110079   19.342471   25.156832 C.3        1 MOL1         0.0207
       6    H4      21.058103   19.279495   25.697999 H          1 MOL1         0.0950
       7    H5      19.617133   20.276103   25.440997 H          1 MOL1         0.0950
       8    C2      20.385802   19.342080   23.640756 C.3        1 MOL1        -0.1415
       9    H6      21.093843   20.150809   23.416202 H          1 MOL1         0.0976
      10    H7      20.882960   18.402947   23.367076 H          1 MOL1         0.0976
      11    C3      19.098229   19.538910   22.801954 C.3        1 MOL1        -0.1375
      12    H8      18.566199   20.427796   23.168615 H          1 MOL1         0.0976
      13    H9      18.418768   18.688763   22.949193 H          1 MOL1         0.0976
      14    C4      19.369803   19.719378   21.288128 C.3        1 MOL1        -0.1375
      15    H10     18.421045   19.964123   20.790769 H          1 MOL1         0.0976
      16    H11     20.030521   20.583399   21.132499 H          1 MOL1         0.0976
      17    C5      19.981399   18.467287   20.615968 C.3        1 MOL1        -0.1350
      18    H12     19.346412   17.592340   20.813435 H          1 MOL1         0.0976
      19    H13     20.967571   18.248975   21.046768 H          1 MOL1         0.0976
      20    C6      20.131916   18.656081   19.091392 C.3        1 MOL1        -0.2365
      21    H14     19.158245   18.836415   18.617416 H          1 MOL1         0.0987
      22    H15     20.569435   17.760624   18.631212 H          1 MOL1         0.0987
      23    H16     20.786672   19.506901   18.861985 H          1 MOL1         0.0987
@<TRIPOS>BOND
    1     1     2    1
    2     1     3    1
    3     1     4    1
    4     1     5    1
    5     5     6    1
    6     5     7    1
    7     5     8    1
    8     8     9    1
    9     8    10    1
   10     8    11    1
   11    11    12    1
   12    11    13    1
   13    11    14    1
   14    14    15    1
   15    14    16    1
   16    14    17    1
   17    17    18    1
   18    17    19    1
   19    17    20    1
   20    20    21    1
   21    20    22    1
   22    20    23    1
@<TRIPOS>SUBSTRUCTURE
       1 MOL1            1 RESIDUE      1      MOL     
@<SCITEGIC>MOL_PROPERTY
VM2 Rank
SciTegic.value.IntegerValue
17

@<SCITEGIC>MOL_PROPERTY
Conf_Id
SciTegic.value.IntegerValue
661

@<SCITEGIC>MOL_PROPERTY
Probability
SciTegic.value.DoubleValue
2.24

@<SCITEGIC>MOL_PROPERTY
Sum Probability
SciTegic.value.DoubleValue
72.08

@<SCITEGIC>MOL_PROPERTY
Delta G
SciTegic.value.DoubleValue
0.999

@<SCITEGIC>MOL_PROPERTY
G
SciTegic.value.DoubleValue
38.915

@<SCITEGIC>MOL_PROPERTY
E
SciTegic.value.DoubleValue
11.183

@<SCITEGIC>MOL_PROPERTY
-TS
SciTegic.value.DoubleValue
27.732

@<SCITEGIC>MOL_PROPERTY
U+W
SciTegic.value.DoubleValue
-7.596

@<SCITEGIC>MOL_PROPERTY
U
SciTegic.value.DoubleValue
48.113

@<SCITEGIC>MOL_PROPERTY
W
SciTegic.value.DoubleValue
-55.710

@<SCITEGIC>MOL_PROPERTY
W(PB)
SciTegic.value.DoubleValue
-57.828

@<SCITEGIC>MOL_PROPERTY
W(SA)
SciTegic.value.DoubleValue
2.118

@<SCITEGIC>MOL_PROPERTY
Valence
SciTegic.value.DoubleValue
2.372

@<SCITEGIC>MOL_PROPERTY
Coulomb
SciTegic.value.DoubleValue
45.091

@<SCITEGIC>MOL_PROPERTY
VdW
SciTegic.value.DoubleValue
0.651

@<SCITEGIC>MOL_PROPERTY
VdW6
SciTegic.value.DoubleValue
-5.797

@<SCITEGIC>MOL_PROPERTY
VdW12
SciTegic.value.DoubleValue
6.448

@<SCITEGIC>MOL_PROPERTY
Bond
SciTegic.value.DoubleValue
0.172

@<SCITEGIC>MOL_PROPERTY
Angle
SciTegic.value.DoubleValue
0.675

@<SCITEGIC>MOL_PROPERTY
Pdih
SciTegic.value.DoubleValue
1.524

@<SCITEGIC>MOL_PROPERTY
Idih
SciTegic.value.DoubleValue
0.000

@<SCITEGIC>MOL_PROPERTY
Tether
SciTegic.value.DoubleValue
0.000

@<TRIPOS>MOLECULE
guest-2_vm2.mol2 : vm2 ligand conformer 18
          23          22           1
SMALL
USER_CHARGES
 
@<TRIPOS>ATOM
       1    N1      19.467295   18.529685   25.910480 N.4        1 MOL1        -0.5940
       2    H1      18.644798   18.056750   25.524095 H          1 MOL1         0.3649
       3    H2      19.226737   18.815995   26.865536 H          1 MOL1         0.3649
       4    H3      20.211580   17.829116   25.987362 H          1 MOL1         0.3649
       5    C1      19.890420   19.710855   25.058830 C.3        1 MOL1         0.0207
       6    H4      20.741293   20.186947   25.553738 H          1 MOL1         0.0950
       7    H5      19.064881   20.427405   25.037191 H          1 MOL1         0.0950
       8    C2      20.285807   19.331122   23.618426 C.3        1 MOL1        -0.1415
       9    H6      20.685176   20.228669   23.130275 H          1 MOL1         0.0976
      10    H7      21.102191   18.597211   23.644258 H          1 MOL1         0.0976
      11    C3      19.094794   18.773193   22.799081 C.3        1 MOL1        -0.1375
      12    H8      18.292227   19.522489   22.755365 H          1 MOL1         0.0976
      13    H9      18.674039   17.900605   23.315937 H          1 MOL1         0.0976
      14    C4      19.479937   18.341902   21.362288 C.3        1 MOL1        -0.1375
      15    H10     20.278275   17.588164   21.405283 H          1 MOL1         0.0976
      16    H11     18.612943   17.845674   20.904568 H          1 MOL1         0.0976
      17    C5      19.919763   19.517156   20.457132 C.3        1 MOL1        -0.1350
      18    H12     20.835080   19.978360   20.850842 H          1 MOL1         0.0976
      19    H13     19.144543   20.296119   20.457105 H          1 MOL1         0.0976
      20    C6      20.177984   19.053087   19.007763 C.3        1 MOL1        -0.2365
      21    H14     19.271343   18.622380   18.563121 H          1 MOL1         0.0987
      22    H15     20.970244   18.293965   18.971850 H          1 MOL1         0.0987
      23    H16     20.491831   19.897497   18.380458 H          1 MOL1         0.0987
@<TRIPOS>BOND
    1     1     2    1
    2     1     3    1
    3     1     4    1
    4     1     5    1
    5     5     6    1
    6     5     7    1
    7     5     8    1
    8     8     9    1
    9     8    10    1
   10     8    11    1
   11    11    12    1
   12    11    13    1
   13    11    14    1
   14    14    15    1
   15    14    16    1
   16    14    17    1
   17    17    18    1
   18    17    19    1
   19    17    20    1
   20    20    21    1
   21    20    22    1
   22    20    23    1
@<TRIPOS>SUBSTRUCTURE
       1 MOL1            1 RESIDUE      1      MOL     
@<SCITEGIC>MOL_PROPERTY
VM2 Rank
SciTegic.value.IntegerValue
18

@<SCITEGIC>MOL_PROPERTY
Conf_Id
SciTegic.value.IntegerValue
840

@<SCITEGIC>MOL_PROPERTY
Probability
SciTegic.value.DoubleValue
1.98

@<SCITEGIC>MOL_PROPERTY
Sum Probability
SciTegic.value.DoubleValue
74.06

@<SCITEGIC>MOL_PROPERTY
Delta G
SciTegic.value.DoubleValue
1.074

@<SCITEGIC>MOL_PROPERTY
G
SciTegic.value.DoubleValue
38.990

@<SCITEGIC>MOL_PROPERTY
E
SciTegic.value.DoubleValue
11.290

@<SCITEGIC>MOL_PROPERTY
-TS
SciTegic.value.DoubleValue
27.700

@<SCITEGIC>MOL_PROPERTY
U+W
SciTegic.value.DoubleValue
-7.489

@<SCITEGIC>MOL_PROPERTY
U
SciTegic.value.DoubleValue
48.041

@<SCITEGIC>MOL_PROPERTY
W
SciTegic.value.DoubleValue
-55.530

@<SCITEGIC>MOL_PROPERTY
W(PB)
SciTegic.value.DoubleValue
-57.678

@<SCITEGIC>MOL_PROPERTY
W(SA)
SciTegic.value.DoubleValue
2.148

@<SCITEGIC>MOL_PROPERTY
Valence
SciTegic.value.DoubleValue
2.406

@<SCITEGIC>MOL_PROPERTY
Coulomb
SciTegic.value.DoubleValue
44.931

@<SCITEGIC>MOL_PROPERTY
VdW
SciTegic.value.DoubleValue
0.704

@<SCITEGIC>MOL_PROPERTY
VdW6
SciTegic.value.DoubleValue
-5.755

@<SCITEGIC>MOL_PROPERTY
VdW12
SciTegic.value.DoubleValue
6.460

@<SCITEGIC>MOL_PROPERTY
Bond
SciTegic.value.DoubleValue
0.178

@<SCITEGIC>MOL_PROPERTY
Angle
SciTegic.value.DoubleValue
0.724

@<SCITEGIC>MOL_PROPERTY
Pdih
SciTegic.value.DoubleValue
1.504

@<SCITEGIC>MOL_PROPERTY
Idih
SciTegic.value.DoubleValue
0.000

@<SCITEGIC>MOL_PROPERTY
Tether
SciTegic.value.DoubleValue
0.000

@<TRIPOS>MOLECULE
guest-2_vm2.mol2 : vm2 ligand conformer 19
          23          22           1
SMALL
USER_CHARGES
 
@<TRIPOS>ATOM
       1    N1      20.066904   18.779139   25.937758 N.4        1 MOL1        -0.5940
       2    H1      19.959111   19.120705   26.898845 H          1 MOL1         0.3649
       3    H2      21.009065   19.040135   25.631691 H          1 MOL1         0.3649
       4    H3      20.034361   17.755479   25.979315 H          1 MOL1         0.3649
       5    C1      18.999686   19.340422   25.018241 C.3        1 MOL1         0.0207
       6    H4      19.073672   20.431102   25.037537 H          1 MOL1         0.0950
       7    H5      18.026953   19.058050   25.430115 H          1 MOL1         0.0950
       8    C2      19.102580   18.839005   23.564527 C.3        1 MOL1        -0.1415
       9    H6      19.046915   17.742426   23.550658 H          1 MOL1         0.0976
      10    H7      18.224712   19.205360   23.018164 H          1 MOL1         0.0976
      11    C3      20.397254   19.314805   22.858445 C.3        1 MOL1        -0.1375
      12    H8      21.270240   18.980265   23.434261 H          1 MOL1         0.0976
      13    H9      20.433711   20.413035   22.852946 H          1 MOL1         0.0976
      14    C4      20.543599   18.784188   21.410779 C.3        1 MOL1        -0.1375
      15    H10     21.539056   19.062542   21.037935 H          1 MOL1         0.0976
      16    H11     20.513334   17.685840   21.416011 H          1 MOL1         0.0976
      17    C5      19.473081   19.331312   20.436809 C.3        1 MOL1        -0.1350
      18    H12     19.465768   20.429701   20.471967 H          1 MOL1         0.0976
      19    H13     18.473485   18.995905   20.743132 H          1 MOL1         0.0976
      20    C6      19.732897   18.868128   18.987442 C.3        1 MOL1        -0.2365
      21    H14     20.708750   19.220608   18.628717 H          1 MOL1         0.0987
      22    H15     18.963448   19.261991   18.310789 H          1 MOL1         0.0987
      23    H16     19.717047   17.772840   18.914495 H          1 MOL1         0.0987
@<TRIPOS>BOND
    1     1     2    1
    2     1     3    1
    3     1     4    1
    4     1     5    1
    5     5     6    1
    6     5     7    1
    7     5     8    1
    8     8     9    1
    9     8    10    1
   10     8    11    1
   11    11    12    1
   12    11    13    1
   13    11    14    1
   14    14    15    1
   15    14    16    1
   16    14    17    1
   17    17    18    1
   18    17    19    1
   19    17    20    1
   20    20    21    1
   21    20    22    1
   22    20    23    1
@<TRIPOS>SUBSTRUCTURE
       1 MOL1            1 RESIDUE      1      MOL     
@<SCITEGIC>MOL_PROPERTY
VM2 Rank
SciTegic.value.IntegerValue
19

@<SCITEGIC>MOL_PROPERTY
Conf_Id
SciTegic.value.IntegerValue
638

@<SCITEGIC>MOL_PROPERTY
Probability
SciTegic.value.DoubleValue
1.95

@<SCITEGIC>MOL_PROPERTY
Sum Probability
SciTegic.value.DoubleValue
76.02

@<SCITEGIC>MOL_PROPERTY
Delta G
SciTegic.value.DoubleValue
1.081

@<SCITEGIC>MOL_PROPERTY
G
SciTegic.value.DoubleValue
38.997

@<SCITEGIC>MOL_PROPERTY
E
SciTegic.value.DoubleValue
11.297

@<SCITEGIC>MOL_PROPERTY
-TS
SciTegic.value.DoubleValue
27.700

@<SCITEGIC>MOL_PROPERTY
U+W
SciTegic.value.DoubleValue
-7.482

@<SCITEGIC>MOL_PROPERTY
U
SciTegic.value.DoubleValue
48.041

@<SCITEGIC>MOL_PROPERTY
W
SciTegic.value.DoubleValue
-55.523

@<SCITEGIC>MOL_PROPERTY
W(PB)
SciTegic.value.DoubleValue
-57.654

@<SCITEGIC>MOL_PROPERTY
W(SA)
SciTegic.value.DoubleValue
2.131

@<SCITEGIC>MOL_PROPERTY
Valence
SciTegic.value.DoubleValue
2.405

@<SCITEGIC>MOL_PROPERTY
Coulomb
SciTegic.value.DoubleValue
44.931

@<SCITEGIC>MOL_PROPERTY
VdW
SciTegic.value.DoubleValue
0.705

@<SCITEGIC>MOL_PROPERTY
VdW6
SciTegic.value.DoubleValue
-5.755

@<SCITEGIC>MOL_PROPERTY
VdW12
SciTegic.value.DoubleValue
6.460

@<SCITEGIC>MOL_PROPERTY
Bond
SciTegic.value.DoubleValue
0.178

@<SCITEGIC>MOL_PROPERTY
Angle
SciTegic.value.DoubleValue
0.724

@<SCITEGIC>MOL_PROPERTY
Pdih
SciTegic.value.DoubleValue
1.504

@<SCITEGIC>MOL_PROPERTY
Idih
SciTegic.value.DoubleValue
0.000

@<SCITEGIC>MOL_PROPERTY
Tether
SciTegic.value.DoubleValue
0.000

@<TRIPOS>MOLECULE
guest-2_vm2.mol2 : vm2 ligand conformer 20
          23          22           1
SMALL
USER_CHARGES
 
@<TRIPOS>ATOM
       1    N1      19.981357   18.564792   26.072481 N.4        1 MOL1        -0.5940
       2    H1      20.503197   17.786651   26.489848 H          1 MOL1         0.3649
       3    H2      19.052533   18.566903   26.506206 H          1 MOL1         0.3649
       4    H3      20.451458   19.428324   26.362557 H          1 MOL1         0.3649
       5    C1      19.900803   18.444016   24.564278 C.3        1 MOL1         0.0207
       6    H4      19.417085   17.492627   24.327026 H          1 MOL1         0.0950
       7    H5      20.921819   18.417501   24.174940 H          1 MOL1         0.0950
       8    C2      19.122099   19.599129   23.907009 C.3        1 MOL1        -0.1415
       9    H6      18.112265   19.641740   24.336360 H          1 MOL1         0.0976
      10    H7      19.606406   20.554907   24.147628 H          1 MOL1         0.0976
      11    C3      19.009293   19.444855   22.371991 C.3        1 MOL1        -0.1375
      12    H8      18.374918   20.252644   21.981827 H          1 MOL1         0.0976
      13    H9      18.492185   18.503576   22.142978 H          1 MOL1         0.0976
      14    C4      20.383557   19.484905   21.656844 C.3        1 MOL1        -0.1375
      15    H10     20.929075   20.383208   21.977436 H          1 MOL1         0.0976
      16    H11     20.994459   18.625317   21.963540 H          1 MOL1         0.0976
      17    C5      20.271582   19.503289   20.113197 C.3        1 MOL1        -0.1350
      18    H12     21.276455   19.634736   19.687990 H          1 MOL1         0.0976
      19    H13     19.686103   20.376494   19.793010 H          1 MOL1         0.0976
      20    C6      19.647310   18.216014   19.528200 C.3        1 MOL1        -0.2365
      21    H14     19.671903   18.241429   18.431074 H          1 MOL1         0.0987
      22    H15     18.599245   18.102328   19.831734 H          1 MOL1         0.0987
      23    H16     20.199197   17.325372   19.855597 H          1 MOL1         0.0987
@<TRIPOS>BOND
    1     1     2    1
    2     1     3    1
    3     1     4    1
    4     1     5    1
    5     5     6    1
    6     5     7    1
    7     5     8    1
    8     8     9    1
    9     8    10    1
   10     8    11    1
   11    11    12    1
   12    11    13    1
   13    11    14    1
   14    14    15    1
   15    14    16    1
   16    14    17    1
   17    17    18    1
   18    17    19    1
   19    17    20    1
   20    20    21    1
   21    20    22    1
   22    20    23    1
@<TRIPOS>SUBSTRUCTURE
       1 MOL1            1 RESIDUE      1      MOL     
@<SCITEGIC>MOL_PROPERTY
VM2 Rank
SciTegic.value.IntegerValue
20

@<SCITEGIC>MOL_PROPERTY
Conf_Id
SciTegic.value.IntegerValue
885

@<SCITEGIC>MOL_PROPERTY
Probability
SciTegic.value.DoubleValue
1.87

@<SCITEGIC>MOL_PROPERTY
Sum Probability
SciTegic.value.DoubleValue
77.88

@<SCITEGIC>MOL_PROPERTY
Delta G
SciTegic.value.DoubleValue
1.108

@<SCITEGIC>MOL_PROPERTY
G
SciTegic.value.DoubleValue
39.024

@<SCITEGIC>MOL_PROPERTY
E
SciTegic.value.DoubleValue
11.287

@<SCITEGIC>MOL_PROPERTY
-TS
SciTegic.value.DoubleValue
27.737

@<SCITEGIC>MOL_PROPERTY
U+W
SciTegic.value.DoubleValue
-7.492

@<SCITEGIC>MOL_PROPERTY
U
SciTegic.value.DoubleValue
47.960

@<SCITEGIC>MOL_PROPERTY
W
SciTegic.value.DoubleValue
-55.452

@<SCITEGIC>MOL_PROPERTY
W(PB)
SciTegic.value.DoubleValue
-57.573

@<SCITEGIC>MOL_PROPERTY
W(SA)
SciTegic.value.DoubleValue
2.121

@<SCITEGIC>MOL_PROPERTY
Valence
SciTegic.value.DoubleValue
2.523

@<SCITEGIC>MOL_PROPERTY
Coulomb
SciTegic.value.DoubleValue
44.824

@<SCITEGIC>MOL_PROPERTY
VdW
SciTegic.value.DoubleValue
0.613

@<SCITEGIC>MOL_PROPERTY
VdW6
SciTegic.value.DoubleValue
-5.844

@<SCITEGIC>MOL_PROPERTY
VdW12
SciTegic.value.DoubleValue
6.457

@<SCITEGIC>MOL_PROPERTY
Bond
SciTegic.value.DoubleValue
0.171

@<SCITEGIC>MOL_PROPERTY
Angle
SciTegic.value.DoubleValue
0.728

@<SCITEGIC>MOL_PROPERTY
Pdih
SciTegic.value.DoubleValue
1.624

@<SCITEGIC>MOL_PROPERTY
Idih
SciTegic.value.DoubleValue
0.000

@<SCITEGIC>MOL_PROPERTY
Tether
SciTegic.value.DoubleValue
0.000

@<TRIPOS>MOLECULE
guest-2_vm2.mol2 : vm2 ligand conformer 21
          23          22           1
SMALL
USER_CHARGES
 
@<TRIPOS>ATOM
       1    N1      19.668439   18.434591   26.058143 N.4        1 MOL1        -0.5940
       2    H1      18.704689   18.701985   26.282893 H          1 MOL1         0.3649
       3    H2      20.285557   19.079387   26.562363 H          1 MOL1         0.3649
       4    H3      19.820295   17.502601   26.458581 H          1 MOL1         0.3649
       5    C1      19.927472   18.455107   24.565420 C.3        1 MOL1         0.0207
       6    H4      19.259493   17.726348   24.099077 H          1 MOL1         0.0950
       7    H5      20.958886   18.133711   24.397182 H          1 MOL1         0.0950
       8    C2      19.707692   19.842657   23.933699 C.3        1 MOL1        -0.1415
       9    H6      18.672508   20.166633   24.105146 H          1 MOL1         0.0976
      10    H7      20.353354   20.573572   24.438485 H          1 MOL1         0.0976
      11    C3      20.015069   19.863177   22.417815 C.3        1 MOL1        -0.1375
      12    H8      21.062151   19.572358   22.260031 H          1 MOL1         0.0976
      13    H9      19.918958   20.894811   22.052196 H          1 MOL1         0.0976
      14    C4      19.077247   18.941776   21.597353 C.3        1 MOL1        -0.1375
      15    H10     19.232908   17.892911   21.883369 H          1 MOL1         0.0976
      16    H11     18.033534   19.179267   21.845505 H          1 MOL1         0.0976
      17    C5      19.262606   19.083667   20.067246 C.3        1 MOL1        -0.1350
      18    H12     19.080421   20.124558   19.765336 H          1 MOL1         0.0976
      19    H13     18.497030   18.478795   19.561406 H          1 MOL1         0.0976
      20    C6      20.657476   18.636025   19.574324 C.3        1 MOL1        -0.2365
      21    H14     20.707316   18.671763   18.478343 H          1 MOL1         0.0987
      22    H15     20.875061   17.606405   19.886653 H          1 MOL1         0.0987
      23    H16     21.450236   19.287960   19.961634 H          1 MOL1         0.0987
@<TRIPOS>BOND
    1     1     2    1
    2     1     3    1
    3     1     4    1
    4     1     5    1
    5     5     6    1
    6     5     7    1
    7     5     8    1
    8     8     9    1
    9     8    10    1
   10     8    11    1
   11    11    12    1
   12    11    13    1
   13    11    14    1
   14    14    15    1
   15    14    16    1
   16    14    17    1
   17    17    18    1
   18    17    19    1
   19    17    20    1
   20    20    21    1
   21    20    22    1
   22    20    23    1
@<TRIPOS>SUBSTRUCTURE
       1 MOL1            1 RESIDUE      1      MOL     
@<SCITEGIC>MOL_PROPERTY
VM2 Rank
SciTegic.value.IntegerValue
21

@<SCITEGIC>MOL_PROPERTY
Conf_Id
SciTegic.value.IntegerValue
366

@<SCITEGIC>MOL_PROPERTY
Probability
SciTegic.value.DoubleValue
1.85

@<SCITEGIC>MOL_PROPERTY
Sum Probability
SciTegic.value.DoubleValue
79.74

@<SCITEGIC>MOL_PROPERTY
Delta G
SciTegic.value.DoubleValue
1.112

@<SCITEGIC>MOL_PROPERTY
G
SciTegic.value.DoubleValue
39.028

@<SCITEGIC>MOL_PROPERTY
E
SciTegic.value.DoubleValue
11.291

@<SCITEGIC>MOL_PROPERTY
-TS
SciTegic.value.DoubleValue
27.737

@<SCITEGIC>MOL_PROPERTY
U+W
SciTegic.value.DoubleValue
-7.488

@<SCITEGIC>MOL_PROPERTY
U
SciTegic.value.DoubleValue
47.960

@<SCITEGIC>MOL_PROPERTY
W
SciTegic.value.DoubleValue
-55.447

@<SCITEGIC>MOL_PROPERTY
W(PB)
SciTegic.value.DoubleValue
-57.579

@<SCITEGIC>MOL_PROPERTY
W(SA)
SciTegic.value.DoubleValue
2.131

@<SCITEGIC>MOL_PROPERTY
Valence
SciTegic.value.DoubleValue
2.523

@<SCITEGIC>MOL_PROPERTY
Coulomb
SciTegic.value.DoubleValue
44.824

@<SCITEGIC>MOL_PROPERTY
VdW
SciTegic.value.DoubleValue
0.613

@<SCITEGIC>MOL_PROPERTY
VdW6
SciTegic.value.DoubleValue
-5.845

@<SCITEGIC>MOL_PROPERTY
VdW12
SciTegic.value.DoubleValue
6.458

@<SCITEGIC>MOL_PROPERTY
Bond
SciTegic.value.DoubleValue
0.171

@<SCITEGIC>MOL_PROPERTY
Angle
SciTegic.value.DoubleValue
0.728

@<SCITEGIC>MOL_PROPERTY
Pdih
SciTegic.value.DoubleValue
1.623

@<SCITEGIC>MOL_PROPERTY
Idih
SciTegic.value.DoubleValue
0.000

@<SCITEGIC>MOL_PROPERTY
Tether
SciTegic.value.DoubleValue
0.000

@<TRIPOS>MOLECULE
guest-2_vm2.mol2 : vm2 ligand conformer 22
          23          22           1
SMALL
USER_CHARGES
 
@<TRIPOS>ATOM
       1    N1      19.935416   19.008917   26.181612 N.4        1 MOL1        -0.5940
       2    H1      20.703698   18.335790   26.268079 H          1 MOL1         0.3649
       3    H2      19.099898   18.565090   26.576285 H          1 MOL1         0.3649
       4    H3      20.165414   19.803298   26.788315 H          1 MOL1         0.3649
       5    C1      19.721113   19.440994   24.745240 C.3        1 MOL1         0.0207
       6    H4      20.636340   19.930574   24.402909 H          1 MOL1         0.0950
       7    H5      18.911516   20.175678   24.731025 H          1 MOL1         0.0950
       8    C2      19.373419   18.268797   23.808117 C.3        1 MOL1        -0.1415
       9    H6      20.186814   17.531094   23.821107 H          1 MOL1         0.0976
      10    H7      18.479999   17.757946   24.191234 H          1 MOL1         0.0976
      11    C3      19.105714   18.722154   22.353324 C.3        1 MOL1        -0.1375
      12    H8      18.284969   19.452655   22.342435 H          1 MOL1         0.0976
      13    H9      18.756251   17.852639   21.781678 H          1 MOL1         0.0976
      14    C4      20.355480   19.328387   21.665468 C.3        1 MOL1        -0.1375
      15    H10     20.718935   20.183017   22.251144 H          1 MOL1         0.0976
      16    H11     21.169215   18.590143   21.658321 H          1 MOL1         0.0976
      17    C5      20.087972   19.814970   20.220408 C.3        1 MOL1        -0.1350
      18    H12     20.984596   20.332893   19.852041 H          1 MOL1         0.0976
      19    H13     19.281569   20.561634   20.222675 H          1 MOL1         0.0976
      20    C6      19.736885   18.672780   19.239830 C.3        1 MOL1        -0.2365
      21    H14     20.512869   17.896349   19.243635 H          1 MOL1         0.0987
      22    H15     19.653642   19.058464   18.215492 H          1 MOL1         0.0987
      23    H16     18.778479   18.203099   19.493029 H          1 MOL1         0.0987
@<TRIPOS>BOND
    1     1     2    1
    2     1     3    1
    3     1     4    1
    4     1     5    1
    5     5     6    1
    6     5     7    1
    7     5     8    1
    8     8     9    1
    9     8    10    1
   10     8    11    1
   11    11    12    1
   12    11    13    1
   13    11    14    1
   14    14    15    1
   15    14    16    1
   16    14    17    1
   17    17    18    1
   18    17    19    1
   19    17    20    1
   20    20    21    1
   21    20    22    1
   22    20    23    1
@<TRIPOS>SUBSTRUCTURE
       1 MOL1            1 RESIDUE      1      MOL     
@<SCITEGIC>MOL_PROPERTY
VM2 Rank
SciTegic.value.IntegerValue
22

@<SCITEGIC>MOL_PROPERTY
Conf_Id
SciTegic.value.IntegerValue
279

@<SCITEGIC>MOL_PROPERTY
Probability
SciTegic.value.DoubleValue
1.72

@<SCITEGIC>MOL_PROPERTY
Sum Probability
SciTegic.value.DoubleValue
81.46

@<SCITEGIC>MOL_PROPERTY
Delta G
SciTegic.value.DoubleValue
1.157

@<SCITEGIC>MOL_PROPERTY
G
SciTegic.value.DoubleValue
39.074

@<SCITEGIC>MOL_PROPERTY
E
SciTegic.value.DoubleValue
11.369

@<SCITEGIC>MOL_PROPERTY
-TS
SciTegic.value.DoubleValue
27.705

@<SCITEGIC>MOL_PROPERTY
U+W
SciTegic.value.DoubleValue
-7.411

@<SCITEGIC>MOL_PROPERTY
U
SciTegic.value.DoubleValue
48.047

@<SCITEGIC>MOL_PROPERTY
W
SciTegic.value.DoubleValue
-55.458

@<SCITEGIC>MOL_PROPERTY
W(PB)
SciTegic.value.DoubleValue
-57.596

@<SCITEGIC>MOL_PROPERTY
W(SA)
SciTegic.value.DoubleValue
2.138

@<SCITEGIC>MOL_PROPERTY
Valence
SciTegic.value.DoubleValue
2.583

@<SCITEGIC>MOL_PROPERTY
Coulomb
SciTegic.value.DoubleValue
44.791

@<SCITEGIC>MOL_PROPERTY
VdW
SciTegic.value.DoubleValue
0.673

@<SCITEGIC>MOL_PROPERTY
VdW6
SciTegic.value.DoubleValue
-5.788

@<SCITEGIC>MOL_PROPERTY
VdW12
SciTegic.value.DoubleValue
6.462

@<SCITEGIC>MOL_PROPERTY
Bond
SciTegic.value.DoubleValue
0.177

@<SCITEGIC>MOL_PROPERTY
Angle
SciTegic.value.DoubleValue
0.787

@<SCITEGIC>MOL_PROPERTY
Pdih
SciTegic.value.DoubleValue
1.619

@<SCITEGIC>MOL_PROPERTY
Idih
SciTegic.value.DoubleValue
0.000

@<SCITEGIC>MOL_PROPERTY
Tether
SciTegic.value.DoubleValue
0.000

@<TRIPOS>MOLECULE
guest-2_vm2.mol2 : vm2 ligand conformer 23
          23          22           1
SMALL
USER_CHARGES
 
@<TRIPOS>ATOM
       1    N1      19.932588   17.950975   25.592925 N.4        1 MOL1        -0.5940
       2    H1      20.796875   17.603194   26.021917 H          1 MOL1         0.3649
       3    H2      19.393028   17.129600   25.301528 H          1 MOL1         0.3649
       4    H3      19.398294   18.415263   26.334395 H          1 MOL1         0.3649
       5    C1      20.215752   18.882858   24.432282 C.3        1 MOL1         0.0207
       6    H4      20.810592   18.333342   23.697986 H          1 MOL1         0.0950
       7    H5      20.815453   19.716767   24.806884 H          1 MOL1         0.0950
       8    C2      18.936847   19.422983   23.765365 C.3        1 MOL1        -0.1415
       9    H6      18.328934   18.586215   23.398473 H          1 MOL1         0.0976
      10    H7      18.327723   19.936635   24.520990 H          1 MOL1         0.0976
      11    C3      19.234592   20.410382   22.609374 C.3        1 MOL1        -0.1375
      12    H8      19.724116   21.303346   23.022237 H          1 MOL1         0.0976
      13    H9      18.283289   20.757878   22.183298 H          1 MOL1         0.0976
      14    C4      20.121391   19.838260   21.473036 C.3        1 MOL1        -0.1375
      15    H10     20.284648   20.630877   20.729752 H          1 MOL1         0.0976
      16    H11     21.115246   19.582338   21.864135 H          1 MOL1         0.0976
      17    C5      19.505876   18.607051   20.767075 C.3        1 MOL1        -0.1350
      18    H12     18.494258   18.849670   20.412826 H          1 MOL1         0.0976
      19    H13     19.404326   17.775004   21.476542 H          1 MOL1         0.0976
      20    C6      20.368952   18.144491   19.573943 C.3        1 MOL1        -0.2365
      21    H14     20.460715   18.938361   18.821243 H          1 MOL1         0.0987
      22    H15     19.919706   17.269317   19.086839 H          1 MOL1         0.0987
      23    H16     21.378890   17.865998   19.902083 H          1 MOL1         0.0987
@<TRIPOS>BOND
    1     1     2    1
    2     1     3    1
    3     1     4    1
    4     1     5    1
    5     5     6    1
    6     5     7    1
    7     5     8    1
    8     8     9    1
    9     8    10    1
   10     8    11    1
   11    11    12    1
   12    11    13    1
   13    11    14    1
   14    14    15    1
   15    14    16    1
   16    14    17    1
   17    17    18    1
   18    17    19    1
   19    17    20    1
   20    20    21    1
   21    20    22    1
   22    20    23    1
@<TRIPOS>SUBSTRUCTURE
       1 MOL1            1 RESIDUE      1      MOL     
@<SCITEGIC>MOL_PROPERTY
VM2 Rank
SciTegic.value.IntegerValue
23

@<SCITEGIC>MOL_PROPERTY
Conf_Id
SciTegic.value.IntegerValue
115

@<SCITEGIC>MOL_PROPERTY
Probability
SciTegic.value.DoubleValue
1.72

@<SCITEGIC>MOL_PROPERTY
Sum Probability
SciTegic.value.DoubleValue
83.17

@<SCITEGIC>MOL_PROPERTY
Delta G
SciTegic.value.DoubleValue
1.158

@<SCITEGIC>MOL_PROPERTY
G
SciTegic.value.DoubleValue
39.075

@<SCITEGIC>MOL_PROPERTY
E
SciTegic.value.DoubleValue
11.222

@<SCITEGIC>MOL_PROPERTY
-TS
SciTegic.value.DoubleValue
27.853

@<SCITEGIC>MOL_PROPERTY
U+W
SciTegic.value.DoubleValue
-7.557

@<SCITEGIC>MOL_PROPERTY
U
SciTegic.value.DoubleValue
48.231

@<SCITEGIC>MOL_PROPERTY
W
SciTegic.value.DoubleValue
-55.788

@<SCITEGIC>MOL_PROPERTY
W(PB)
SciTegic.value.DoubleValue
-57.904

@<SCITEGIC>MOL_PROPERTY
W(SA)
SciTegic.value.DoubleValue
2.116

@<SCITEGIC>MOL_PROPERTY
Valence
SciTegic.value.DoubleValue
2.496

@<SCITEGIC>MOL_PROPERTY
Coulomb
SciTegic.value.DoubleValue
45.257

@<SCITEGIC>MOL_PROPERTY
VdW
SciTegic.value.DoubleValue
0.478

@<SCITEGIC>MOL_PROPERTY
VdW6
SciTegic.value.DoubleValue
-6.161

@<SCITEGIC>MOL_PROPERTY
VdW12
SciTegic.value.DoubleValue
6.639

@<SCITEGIC>MOL_PROPERTY
Bond
SciTegic.value.DoubleValue
0.180

@<SCITEGIC>MOL_PROPERTY
Angle
SciTegic.value.DoubleValue
0.891

@<SCITEGIC>MOL_PROPERTY
Pdih
SciTegic.value.DoubleValue
1.425

@<SCITEGIC>MOL_PROPERTY
Idih
SciTegic.value.DoubleValue
0.000

@<SCITEGIC>MOL_PROPERTY
Tether
SciTegic.value.DoubleValue
0.000

@<TRIPOS>MOLECULE
guest-2_vm2.mol2 : vm2 ligand conformer 24
          23          22           1
SMALL
USER_CHARGES
 
@<TRIPOS>ATOM
       1    N1      20.174542   18.051589   25.603923 N.4        1 MOL1        -0.5940
       2    H1      20.163539   18.733507   26.369219 H          1 MOL1         0.3649
       3    H2      21.157365   17.863358   25.381833 H          1 MOL1         0.3649
       4    H3      19.780695   17.180559   25.975632 H          1 MOL1         0.3649
       5    C1      19.406021   18.546087   24.395400 C.3        1 MOL1         0.0207
       6    H4      18.365640   18.697841   24.695314 H          1 MOL1         0.0950
       7    H5      19.434350   17.760966   23.635283 H          1 MOL1         0.0950
       8    C2      19.973189   19.854050   23.812593 C.3        1 MOL1        -0.1415
       9    H6      19.978567   20.623304   24.596211 H          1 MOL1         0.0976
      10    H7      21.020780   19.705862   23.521144 H          1 MOL1         0.0976
      11    C3      19.154825   20.377204   22.605732 C.3        1 MOL1        -0.1375
      12    H8      19.609694   21.309577   22.243729 H          1 MOL1         0.0976
      13    H9      18.146992   20.647362   22.950349 H          1 MOL1         0.0976
      14    C4      19.025457   19.382404   21.423094 C.3        1 MOL1        -0.1375
      15    H10     18.478610   18.485637   21.743984 H          1 MOL1         0.0976
      16    H11     18.407378   19.850022   20.644200 H          1 MOL1         0.0976
      17    C5      20.383927   18.972262   20.807098 C.3        1 MOL1        -0.1350
      18    H12     20.989223   18.434218   21.548776 H          1 MOL1         0.0976
      19    H13     20.949806   19.871030   20.524740 H          1 MOL1         0.0976
      20    C6      20.198040   18.073404   19.566161 C.3        1 MOL1        -0.2365
      21    H14     19.630000   18.592842   18.783398 H          1 MOL1         0.0987
      22    H15     19.660748   17.151366   19.823793 H          1 MOL1         0.0987
      23    H16     21.170756   17.789674   19.143857 H          1 MOL1         0.0987
@<TRIPOS>BOND
    1     1     2    1
    2     1     3    1
    3     1     4    1
    4     1     5    1
    5     5     6    1
    6     5     7    1
    7     5     8    1
    8     8     9    1
    9     8    10    1
   10     8    11    1
   11    11    12    1
   12    11    13    1
   13    11    14    1
   14    14    15    1
   15    14    16    1
   16    14    17    1
   17    17    18    1
   18    17    19    1
   19    17    20    1
   20    20    21    1
   21    20    22    1
   22    20    23    1
@<TRIPOS>SUBSTRUCTURE
       1 MOL1            1 RESIDUE      1      MOL     
@<SCITEGIC>MOL_PROPERTY
VM2 Rank
SciTegic.value.IntegerValue
24

@<SCITEGIC>MOL_PROPERTY
Conf_Id
SciTegic.value.IntegerValue
543

@<SCITEGIC>MOL_PROPERTY
Probability
SciTegic.value.DoubleValue
1.66

@<SCITEGIC>MOL_PROPERTY
Sum Probability
SciTegic.value.DoubleValue
84.83

@<SCITEGIC>MOL_PROPERTY
Delta G
SciTegic.value.DoubleValue
1.179

@<SCITEGIC>MOL_PROPERTY
G
SciTegic.value.DoubleValue
39.096

@<SCITEGIC>MOL_PROPERTY
E
SciTegic.value.DoubleValue
11.243

@<SCITEGIC>MOL_PROPERTY
-TS
SciTegic.value.DoubleValue
27.853

@<SCITEGIC>MOL_PROPERTY
U+W
SciTegic.value.DoubleValue
-7.536

@<SCITEGIC>MOL_PROPERTY
U
SciTegic.value.DoubleValue
48.231

@<SCITEGIC>MOL_PROPERTY
W
SciTegic.value.DoubleValue
-55.766

@<SCITEGIC>MOL_PROPERTY
W(PB)
SciTegic.value.DoubleValue
-57.888

@<SCITEGIC>MOL_PROPERTY
W(SA)
SciTegic.value.DoubleValue
2.121

@<SCITEGIC>MOL_PROPERTY
Valence
SciTegic.value.DoubleValue
2.496

@<SCITEGIC>MOL_PROPERTY
Coulomb
SciTegic.value.DoubleValue
45.257

@<SCITEGIC>MOL_PROPERTY
VdW
SciTegic.value.DoubleValue
0.478

@<SCITEGIC>MOL_PROPERTY
VdW6
SciTegic.value.DoubleValue
-6.161

@<SCITEGIC>MOL_PROPERTY
VdW12
SciTegic.value.DoubleValue
6.639

@<SCITEGIC>MOL_PROPERTY
Bond
SciTegic.value.DoubleValue
0.180

@<SCITEGIC>MOL_PROPERTY
Angle
SciTegic.value.DoubleValue
0.891

@<SCITEGIC>MOL_PROPERTY
Pdih
SciTegic.value.DoubleValue
1.425

@<SCITEGIC>MOL_PROPERTY
Idih
SciTegic.value.DoubleValue
0.000

@<SCITEGIC>MOL_PROPERTY
Tether
SciTegic.value.DoubleValue
0.000

@<TRIPOS>MOLECULE
guest-2_vm2.mol2 : vm2 ligand conformer 25
          23          22           1
SMALL
USER_CHARGES
 
@<TRIPOS>ATOM
       1    N1      19.377933   18.776940   26.156181 N.4        1 MOL1        -0.5940
       2    H1      18.607118   19.155070   26.717330 H          1 MOL1         0.3649
       3    H2      20.248116   19.042391   26.628577 H          1 MOL1         0.3649
       4    H3      19.308268   17.755344   26.204376 H          1 MOL1         0.3649
       5    C1      19.333926   19.279975   24.727615 C.3        1 MOL1         0.0207
       6    H4      19.383347   20.371919   24.752639 H          1 MOL1         0.0950
       7    H5      18.371367   18.988627   24.299693 H          1 MOL1         0.0950
       8    C2      20.480490   18.729310   23.858539 C.3        1 MOL1        -0.1415
       9    H6      21.439633   18.988970   24.326051 H          1 MOL1         0.0976
      10    H7      20.430690   17.632585   23.832165 H          1 MOL1         0.0976
      11    C3      20.460271   19.285649   22.415039 C.3        1 MOL1        -0.1375
      12    H8      21.365496   18.938038   21.900557 H          1 MOL1         0.0976
      13    H9      20.520105   20.382434   22.444285 H          1 MOL1         0.0976
      14    C4      19.207105   18.850775   21.613146 C.3        1 MOL1        -0.1375
      15    H10     19.159036   17.754071   21.566787 H          1 MOL1         0.0976
      16    H11     18.301509   19.177590   22.140968 H          1 MOL1         0.0976
      17    C5      19.162529   19.429990   20.178208 C.3        1 MOL1        -0.1350
      18    H12     19.199766   20.527605   20.218867 H          1 MOL1         0.0976
      19    H13     18.195055   19.172422   19.724858 H          1 MOL1         0.0976
      20    C6      20.293747   18.904361   19.265271 C.3        1 MOL1        -0.2365
      21    H14     20.298542   17.807084   19.234070 H          1 MOL1         0.0987
      22    H15     21.279358   19.243500   19.607044 H          1 MOL1         0.0987
      23    H16     20.158569   19.268301   18.238518 H          1 MOL1         0.0987
@<TRIPOS>BOND
    1     1     2    1
    2     1     3    1
    3     1     4    1
    4     1     5    1
    5     5     6    1
    6     5     7    1
    7     5     8    1
    8     8     9    1
    9     8    10    1
   10     8    11    1
   11    11    12    1
   12    11    13    1
   13    11    14    1
   14    14    15    1
   15    14    16    1
   16    14    17    1
   17    17    18    1
   18    17    19    1
   19    17    20    1
   20    20    21    1
   21    20    22    1
   22    20    23    1
@<TRIPOS>SUBSTRUCTURE
       1 MOL1            1 RESIDUE      1      MOL     
@<SCITEGIC>MOL_PROPERTY
VM2 Rank
SciTegic.value.IntegerValue
25

@<SCITEGIC>MOL_PROPERTY
Conf_Id
SciTegic.value.IntegerValue
350

@<SCITEGIC>MOL_PROPERTY
Probability
SciTegic.value.DoubleValue
1.63

@<SCITEGIC>MOL_PROPERTY
Sum Probability
SciTegic.value.DoubleValue
86.46

@<SCITEGIC>MOL_PROPERTY
Delta G
SciTegic.value.DoubleValue
1.188

@<SCITEGIC>MOL_PROPERTY
G
SciTegic.value.DoubleValue
39.104

@<SCITEGIC>MOL_PROPERTY
E
SciTegic.value.DoubleValue
11.399

@<SCITEGIC>MOL_PROPERTY
-TS
SciTegic.value.DoubleValue
27.705

@<SCITEGIC>MOL_PROPERTY
U+W
SciTegic.value.DoubleValue
-7.380

@<SCITEGIC>MOL_PROPERTY
U
SciTegic.value.DoubleValue
48.047

@<SCITEGIC>MOL_PROPERTY
W
SciTegic.value.DoubleValue
-55.427

@<SCITEGIC>MOL_PROPERTY
W(PB)
SciTegic.value.DoubleValue
-57.543

@<SCITEGIC>MOL_PROPERTY
W(SA)
SciTegic.value.DoubleValue
2.116

@<SCITEGIC>MOL_PROPERTY
Valence
SciTegic.value.DoubleValue
2.583

@<SCITEGIC>MOL_PROPERTY
Coulomb
SciTegic.value.DoubleValue
44.791

@<SCITEGIC>MOL_PROPERTY
VdW
SciTegic.value.DoubleValue
0.673

@<SCITEGIC>MOL_PROPERTY
VdW6
SciTegic.value.DoubleValue
-5.789

@<SCITEGIC>MOL_PROPERTY
VdW12
SciTegic.value.DoubleValue
6.462

@<SCITEGIC>MOL_PROPERTY
Bond
SciTegic.value.DoubleValue
0.177

@<SCITEGIC>MOL_PROPERTY
Angle
SciTegic.value.DoubleValue
0.787

@<SCITEGIC>MOL_PROPERTY
Pdih
SciTegic.value.DoubleValue
1.619

@<SCITEGIC>MOL_PROPERTY
Idih
SciTegic.value.DoubleValue
0.000

@<SCITEGIC>MOL_PROPERTY
Tether
SciTegic.value.DoubleValue
0.000

@<TRIPOS>MOLECULE
guest-2_vm2.mol2 : vm2 ligand conformer 26
          23          22           1
SMALL
USER_CHARGES
 
@<TRIPOS>ATOM
       1    N1      20.052196   18.228111   25.896151 N.4        1 MOL1        -0.5940
       2    H1      20.643798   17.443052   25.605507 H          1 MOL1         0.3649
       3    H2      19.117151   17.849820   26.078982 H          1 MOL1         0.3649
       4    H3      20.419398   18.561522   26.793953 H          1 MOL1         0.3649
       5    C1      20.022942   19.329783   24.856252 C.3        1 MOL1         0.0207
       6    H4      21.042507   19.705050   24.733223 H          1 MOL1         0.0950
       7    H5      19.401946   20.142340   25.243009 H          1 MOL1         0.0950
       8    C2      19.475716   18.862023   23.496087 C.3        1 MOL1        -0.1415
       9    H6      20.095678   18.035401   23.126586 H          1 MOL1         0.0976
      10    H7      18.457831   18.471310   23.626657 H          1 MOL1         0.0976
      11    C3      19.462276   20.016602   22.466998 C.3        1 MOL1        -0.1375
      12    H8      20.485211   20.381918   22.305218 H          1 MOL1         0.0976
      13    H9      18.903070   20.863417   22.888594 H          1 MOL1         0.0976
      14    C4      18.816331   19.631990   21.110646 C.3        1 MOL1        -0.1375
      15    H10     17.760748   19.376702   21.277362 H          1 MOL1         0.0976
      16    H11     18.811666   20.516844   20.459318 H          1 MOL1         0.0976
      17    C5      19.500228   18.461205   20.359300 C.3        1 MOL1        -0.1350
      18    H12     18.955924   18.282636   19.421437 H          1 MOL1         0.0976
      19    H13     19.409839   17.533040   20.939312 H          1 MOL1         0.0976
      20    C6      20.986311   18.727286   20.028565 C.3        1 MOL1        -0.2365
      21    H14     21.396182   17.912543   19.417779 H          1 MOL1         0.0987
      22    H15     21.594881   18.795650   20.938845 H          1 MOL1         0.0987
      23    H16     21.103844   19.661720   19.464675 H          1 MOL1         0.0987
@<TRIPOS>BOND
    1     1     2    1
    2     1     3    1
    3     1     4    1
    4     1     5    1
    5     5     6    1
    6     5     7    1
    7     5     8    1
    8     8     9    1
    9     8    10    1
   10     8    11    1
   11    11    12    1
   12    11    13    1
   13    11    14    1
   14    14    15    1
   15    14    16    1
   16    14    17    1
   17    17    18    1
   18    17    19    1
   19    17    20    1
   20    20    21    1
   21    20    22    1
   22    20    23    1
@<TRIPOS>SUBSTRUCTURE
       1 MOL1            1 RESIDUE      1      MOL     
@<SCITEGIC>MOL_PROPERTY
VM2 Rank
SciTegic.value.IntegerValue
26

@<SCITEGIC>MOL_PROPERTY
Conf_Id
SciTegic.value.IntegerValue
676

@<SCITEGIC>MOL_PROPERTY
Probability
SciTegic.value.DoubleValue
1.49

@<SCITEGIC>MOL_PROPERTY
Sum Probability
SciTegic.value.DoubleValue
87.96

@<SCITEGIC>MOL_PROPERTY
Delta G
SciTegic.value.DoubleValue
1.241

@<SCITEGIC>MOL_PROPERTY
G
SciTegic.value.DoubleValue
39.158

@<SCITEGIC>MOL_PROPERTY
E
SciTegic.value.DoubleValue
11.212

@<SCITEGIC>MOL_PROPERTY
-TS
SciTegic.value.DoubleValue
27.946

@<SCITEGIC>MOL_PROPERTY
U+W
SciTegic.value.DoubleValue
-7.567

@<SCITEGIC>MOL_PROPERTY
U
SciTegic.value.DoubleValue
48.054

@<SCITEGIC>MOL_PROPERTY
W
SciTegic.value.DoubleValue
-55.621

@<SCITEGIC>MOL_PROPERTY
W(PB)
SciTegic.value.DoubleValue
-57.724

@<SCITEGIC>MOL_PROPERTY
W(SA)
SciTegic.value.DoubleValue
2.103

@<SCITEGIC>MOL_PROPERTY
Valence
SciTegic.value.DoubleValue
2.692

@<SCITEGIC>MOL_PROPERTY
Coulomb
SciTegic.value.DoubleValue
44.814

@<SCITEGIC>MOL_PROPERTY
VdW
SciTegic.value.DoubleValue
0.547

@<SCITEGIC>MOL_PROPERTY
VdW6
SciTegic.value.DoubleValue
-6.176

@<SCITEGIC>MOL_PROPERTY
VdW12
SciTegic.value.DoubleValue
6.723

@<SCITEGIC>MOL_PROPERTY
Bond
SciTegic.value.DoubleValue
0.192

@<SCITEGIC>MOL_PROPERTY
Angle
SciTegic.value.DoubleValue
1.036

@<SCITEGIC>MOL_PROPERTY
Pdih
SciTegic.value.DoubleValue
1.465

@<SCITEGIC>MOL_PROPERTY
Idih
SciTegic.value.DoubleValue
0.000

@<SCITEGIC>MOL_PROPERTY
Tether
SciTegic.value.DoubleValue
0.000

@<TRIPOS>MOLECULE
guest-2_vm2.mol2 : vm2 ligand conformer 27
          23          22           1
SMALL
USER_CHARGES
 
@<TRIPOS>ATOM
       1    N1      19.870853   18.152683   25.887905 N.4        1 MOL1        -0.5940
       2    H1      20.033902   17.189365   25.577718 H          1 MOL1         0.3649
       3    H2      19.307385   18.098964   26.743281 H          1 MOL1         0.3649
       4    H3      20.780863   18.541861   26.154856 H          1 MOL1         0.3649
       5    C1      19.192134   18.984210   24.818405 C.3        1 MOL1         0.0207
       6    H4      19.022810   19.984642   25.225753 H          1 MOL1         0.0950
       7    H5      18.220286   18.531136   24.604607 H          1 MOL1         0.0950
       8    C2      20.012937   19.085498   23.520589 C.3        1 MOL1        -0.1415
       9    H6      20.993934   19.526302   23.742249 H          1 MOL1         0.0976
      10    H7      20.191663   18.075317   23.131001 H          1 MOL1         0.0976
      11    C3      19.284757   19.942728   22.458906 C.3        1 MOL1        -0.1375
      12    H8      19.045037   20.922457   22.895043 H          1 MOL1         0.0976
      13    H9      18.320624   19.481425   22.206571 H          1 MOL1         0.0976
      14    C4      20.115691   20.172466   21.169863 C.3        1 MOL1        -0.1375
      15    H10     19.543026   20.821047   20.492653 H          1 MOL1         0.0976
      16    H11     21.024477   20.734312   21.426100 H          1 MOL1         0.0976
      17    C5      20.522776   18.886541   20.405895 C.3        1 MOL1        -0.1350
      18    H12     21.198323   18.276969   21.020821 H          1 MOL1         0.0976
      19    H13     21.104054   19.176177   19.519346 H          1 MOL1         0.0976
      20    C6      19.316853   18.032873   19.952436 C.3        1 MOL1        -0.2365
      21    H14     19.653302   17.187658   19.338211 H          1 MOL1         0.0987
      22    H15     18.616514   18.627166   19.351356 H          1 MOL1         0.0987
      23    H16     18.770683   17.620808   20.810074 H          1 MOL1         0.0987
@<TRIPOS>BOND
    1     1     2    1
    2     1     3    1
    3     1     4    1
    4     1     5    1
    5     5     6    1
    6     5     7    1
    7     5     8    1
    8     8     9    1
    9     8    10    1
   10     8    11    1
   11    11    12    1
   12    11    13    1
   13    11    14    1
   14    14    15    1
   15    14    16    1
   16    14    17    1
   17    17    18    1
   18    17    19    1
   19    17    20    1
   20    20    21    1
   21    20    22    1
   22    20    23    1
@<TRIPOS>SUBSTRUCTURE
       1 MOL1            1 RESIDUE      1      MOL     
@<SCITEGIC>MOL_PROPERTY
VM2 Rank
SciTegic.value.IntegerValue
27

@<SCITEGIC>MOL_PROPERTY
Conf_Id
SciTegic.value.IntegerValue
518

@<SCITEGIC>MOL_PROPERTY
Probability
SciTegic.value.DoubleValue
1.29

@<SCITEGIC>MOL_PROPERTY
Sum Probability
SciTegic.value.DoubleValue
89.25

@<SCITEGIC>MOL_PROPERTY
Delta G
SciTegic.value.DoubleValue
1.327

@<SCITEGIC>MOL_PROPERTY
G
SciTegic.value.DoubleValue
39.244

@<SCITEGIC>MOL_PROPERTY
E
SciTegic.value.DoubleValue
11.298

@<SCITEGIC>MOL_PROPERTY
-TS
SciTegic.value.DoubleValue
27.946

@<SCITEGIC>MOL_PROPERTY
U+W
SciTegic.value.DoubleValue
-7.481

@<SCITEGIC>MOL_PROPERTY
U
SciTegic.value.DoubleValue
48.054

@<SCITEGIC>MOL_PROPERTY
W
SciTegic.value.DoubleValue
-55.535

@<SCITEGIC>MOL_PROPERTY
W(PB)
SciTegic.value.DoubleValue
-57.640

@<SCITEGIC>MOL_PROPERTY
W(SA)
SciTegic.value.DoubleValue
2.105

@<SCITEGIC>MOL_PROPERTY
Valence
SciTegic.value.DoubleValue
2.692

@<SCITEGIC>MOL_PROPERTY
Coulomb
SciTegic.value.DoubleValue
44.814

@<SCITEGIC>MOL_PROPERTY
VdW
SciTegic.value.DoubleValue
0.547

@<SCITEGIC>MOL_PROPERTY
VdW6
SciTegic.value.DoubleValue
-6.176

@<SCITEGIC>MOL_PROPERTY
VdW12
SciTegic.value.DoubleValue
6.723

@<SCITEGIC>MOL_PROPERTY
Bond
SciTegic.value.DoubleValue
0.192

@<SCITEGIC>MOL_PROPERTY
Angle
SciTegic.value.DoubleValue
1.036

@<SCITEGIC>MOL_PROPERTY
Pdih
SciTegic.value.DoubleValue
1.465

@<SCITEGIC>MOL_PROPERTY
Idih
SciTegic.value.DoubleValue
0.000

@<SCITEGIC>MOL_PROPERTY
Tether
SciTegic.value.DoubleValue
0.000

@<TRIPOS>MOLECULE
guest-2_vm2.mol2 : vm2 ligand conformer 28
          23          22           1
SMALL
USER_CHARGES
 
@<TRIPOS>ATOM
       1    N1      19.877070   18.689440   25.795848 N.4        1 MOL1        -0.5940
       2    H1      18.939576   18.322280   25.988043 H          1 MOL1         0.3649
       3    H2      20.273168   18.983054   26.695199 H          1 MOL1         0.3649
       4    H3      20.445968   17.906585   25.459814 H          1 MOL1         0.3649
       5    C1      19.841963   19.830061   24.797266 C.3        1 MOL1         0.0207
       6    H4      20.864807   20.189324   24.655385 H          1 MOL1         0.0950
       7    H5      19.255415   20.639371   25.240601 H          1 MOL1         0.0950
       8    C2      19.233030   19.446694   23.434483 C.3        1 MOL1        -0.1415
       9    H6      18.212766   19.068512   23.581839 H          1 MOL1         0.0976
      10    H7      19.146397   20.360729   22.833835 H          1 MOL1         0.0976
      11    C3      20.083593   18.399351   22.672891 C.3        1 MOL1        -0.1375
      12    H8      20.202590   17.503446   23.296261 H          1 MOL1         0.0976
      13    H9      21.096623   18.791123   22.511149 H          1 MOL1         0.0976
      14    C4      19.463200   17.962033   21.320435 C.3        1 MOL1        -0.1375
      15    H10     20.103703   17.189200   20.873554 H          1 MOL1         0.0976
      16    H11     18.496342   17.476367   21.511543 H          1 MOL1         0.0976
      17    C5      19.255456   19.097541   20.285694 C.3        1 MOL1        -0.1350
      18    H12     18.517591   19.820858   20.657593 H          1 MOL1         0.0976
      19    H13     18.817347   18.664499   19.375600 H          1 MOL1         0.0976
      20    C6      20.561687   19.831880   19.907382 C.3        1 MOL1        -0.2365
      21    H14     21.322400   19.125422   19.550757 H          1 MOL1         0.0987
      22    H15     20.975859   20.381558   20.761756 H          1 MOL1         0.0987
      23    H16     20.376032   20.558546   19.105915 H          1 MOL1         0.0987
@<TRIPOS>BOND
    1     1     2    1
    2     1     3    1
    3     1     4    1
    4     1     5    1
    5     5     6    1
    6     5     7    1
    7     5     8    1
    8     8     9    1
    9     8    10    1
   10     8    11    1
   11    11    12    1
   12    11    13    1
   13    11    14    1
   14    14    15    1
   15    14    16    1
   16    14    17    1
   17    17    18    1
   18    17    19    1
   19    17    20    1
   20    20    21    1
   21    20    22    1
   22    20    23    1
@<TRIPOS>SUBSTRUCTURE
       1 MOL1            1 RESIDUE      1      MOL     
@<SCITEGIC>MOL_PROPERTY
VM2 Rank
SciTegic.value.IntegerValue
28

@<SCITEGIC>MOL_PROPERTY
Conf_Id
SciTegic.value.IntegerValue
509

@<SCITEGIC>MOL_PROPERTY
Probability
SciTegic.value.DoubleValue
0.88

@<SCITEGIC>MOL_PROPERTY
Sum Probability
SciTegic.value.DoubleValue
90.13

@<SCITEGIC>MOL_PROPERTY
Delta G
SciTegic.value.DoubleValue
1.560

@<SCITEGIC>MOL_PROPERTY
G
SciTegic.value.DoubleValue
39.476

@<SCITEGIC>MOL_PROPERTY
E
SciTegic.value.DoubleValue
11.437

@<SCITEGIC>MOL_PROPERTY
-TS
SciTegic.value.DoubleValue
28.039

@<SCITEGIC>MOL_PROPERTY
U+W
SciTegic.value.DoubleValue
-7.342

@<SCITEGIC>MOL_PROPERTY
U
SciTegic.value.DoubleValue
48.503

@<SCITEGIC>MOL_PROPERTY
W
SciTegic.value.DoubleValue
-55.845

@<SCITEGIC>MOL_PROPERTY
W(PB)
SciTegic.value.DoubleValue
-57.925

@<SCITEGIC>MOL_PROPERTY
W(SA)
SciTegic.value.DoubleValue
2.080

@<SCITEGIC>MOL_PROPERTY
Valence
SciTegic.value.DoubleValue
2.823

@<SCITEGIC>MOL_PROPERTY
Coulomb
SciTegic.value.DoubleValue
44.990

@<SCITEGIC>MOL_PROPERTY
VdW
SciTegic.value.DoubleValue
0.689

@<SCITEGIC>MOL_PROPERTY
VdW6
SciTegic.value.DoubleValue
-6.667

@<SCITEGIC>MOL_PROPERTY
VdW12
SciTegic.value.DoubleValue
7.357

@<SCITEGIC>MOL_PROPERTY
Bond
SciTegic.value.DoubleValue
0.219

@<SCITEGIC>MOL_PROPERTY
Angle
SciTegic.value.DoubleValue
1.118

@<SCITEGIC>MOL_PROPERTY
Pdih
SciTegic.value.DoubleValue
1.487

@<SCITEGIC>MOL_PROPERTY
Idih
SciTegic.value.DoubleValue
0.000

@<SCITEGIC>MOL_PROPERTY
Tether
SciTegic.value.DoubleValue
0.000

@<TRIPOS>MOLECULE
guest-2_vm2.mol2 : vm2 ligand conformer 29
          23          22           1
SMALL
USER_CHARGES
 
@<TRIPOS>ATOM
       1    N1      20.073780   18.158547   25.294091 N.4        1 MOL1        -0.5940
       2    H1      20.889104   17.716191   25.731505 H          1 MOL1         0.3649
       3    H2      19.589643   17.433288   24.756433 H          1 MOL1         0.3649
       4    H3      19.445673   18.443872   26.052099 H          1 MOL1         0.3649
       5    C1      20.470185   19.332025   24.419993 C.3        1 MOL1         0.0207
       6    H4      21.162818   18.968240   23.656537 H          1 MOL1         0.0950
       7    H5      21.004025   20.050095   25.048391 H          1 MOL1         0.0950
       8    C2      19.273279   20.032070   23.745355 C.3        1 MOL1        -0.1415
       9    H6      18.602305   20.423417   24.521472 H          1 MOL1         0.0976
      10    H7      19.639234   20.909395   23.196909 H          1 MOL1         0.0976
      11    C3      18.465723   19.116845   22.787637 C.3        1 MOL1        -0.1375
      12    H8      17.663248   19.708358   22.325737 H          1 MOL1         0.0976
      13    H9      17.959802   18.337224   23.372844 H          1 MOL1         0.0976
      14    C4      19.302318   18.440380   21.670810 C.3        1 MOL1        -0.1375
      15    H10     20.050704   17.769980   22.113950 H          1 MOL1         0.0976
      16    H11     18.634884   17.799057   21.078715 H          1 MOL1         0.0976
      17    C5      19.999789   19.446874   20.725612 C.3        1 MOL1        -0.1350
      18    H12     20.725323   20.052040   21.285356 H          1 MOL1         0.0976
      19    H13     19.256861   20.142450   20.310950 H          1 MOL1         0.0976
      20    C6      20.730928   18.730258   19.570502 C.3        1 MOL1        -0.2365
      21    H14     21.221801   19.458244   18.911643 H          1 MOL1         0.0987
      22    H15     20.029617   18.144785   18.961753 H          1 MOL1         0.0987
      23    H16     21.501965   18.049272   19.953861 H          1 MOL1         0.0987
@<TRIPOS>BOND
    1     1     2    1
    2     1     3    1
    3     1     4    1
    4     1     5    1
    5     5     6    1
    6     5     7    1
    7     5     8    1
    8     8     9    1
    9     8    10    1
   10     8    11    1
   11    11    12    1
   12    11    13    1
   13    11    14    1
   14    14    15    1
   15    14    16    1
   16    14    17    1
   17    17    18    1
   18    17    19    1
   19    17    20    1
   20    20    21    1
   21    20    22    1
   22    20    23    1
@<TRIPOS>SUBSTRUCTURE
       1 MOL1            1 RESIDUE      1      MOL     
@<SCITEGIC>MOL_PROPERTY
VM2 Rank
SciTegic.value.IntegerValue
29

@<SCITEGIC>MOL_PROPERTY
Conf_Id
SciTegic.value.IntegerValue
271

@<SCITEGIC>MOL_PROPERTY
Probability
SciTegic.value.DoubleValue
0.83

@<SCITEGIC>MOL_PROPERTY
Sum Probability
SciTegic.value.DoubleValue
90.96

@<SCITEGIC>MOL_PROPERTY
Delta G
SciTegic.value.DoubleValue
1.591

@<SCITEGIC>MOL_PROPERTY
G
SciTegic.value.DoubleValue
39.508

@<SCITEGIC>MOL_PROPERTY
E
SciTegic.value.DoubleValue
11.447

@<SCITEGIC>MOL_PROPERTY
-TS
SciTegic.value.DoubleValue
28.060

@<SCITEGIC>MOL_PROPERTY
U+W
SciTegic.value.DoubleValue
-7.332

@<SCITEGIC>MOL_PROPERTY
U
SciTegic.value.DoubleValue
48.590

@<SCITEGIC>MOL_PROPERTY
W
SciTegic.value.DoubleValue
-55.922

@<SCITEGIC>MOL_PROPERTY
W(PB)
SciTegic.value.DoubleValue
-58.012

@<SCITEGIC>MOL_PROPERTY
W(SA)
SciTegic.value.DoubleValue
2.090

@<SCITEGIC>MOL_PROPERTY
Valence
SciTegic.value.DoubleValue
2.601

@<SCITEGIC>MOL_PROPERTY
Coulomb
SciTegic.value.DoubleValue
45.520

@<SCITEGIC>MOL_PROPERTY
VdW
SciTegic.value.DoubleValue
0.469

@<SCITEGIC>MOL_PROPERTY
VdW6
SciTegic.value.DoubleValue
-6.867

@<SCITEGIC>MOL_PROPERTY
VdW12
SciTegic.value.DoubleValue
7.336

@<SCITEGIC>MOL_PROPERTY
Bond
SciTegic.value.DoubleValue
0.205

@<SCITEGIC>MOL_PROPERTY
Angle
SciTegic.value.DoubleValue
0.962

@<SCITEGIC>MOL_PROPERTY
Pdih
SciTegic.value.DoubleValue
1.434

@<SCITEGIC>MOL_PROPERTY
Idih
SciTegic.value.DoubleValue
0.000

@<SCITEGIC>MOL_PROPERTY
Tether
SciTegic.value.DoubleValue
0.000

@<TRIPOS>MOLECULE
guest-2_vm2.mol2 : vm2 ligand conformer 30
          23          22           1
SMALL
USER_CHARGES
 
@<TRIPOS>ATOM
       1    N1      20.230442   19.840747   25.350173 N.4        1 MOL1        -0.5940
       2    H1      20.956090   19.290874   25.820948 H          1 MOL1         0.3649
       3    H2      19.905356   20.544507   26.021646 H          1 MOL1         0.3649
       4    H3      20.682659   20.344717   24.581334 H          1 MOL1         0.3649
       5    C1      19.094543   18.967341   24.855009 C.3        1 MOL1         0.0207
       6    H4      18.344966   19.615107   24.393462 H          1 MOL1         0.0950
       7    H5      18.638174   18.489659   25.726257 H          1 MOL1         0.0950
       8    C2      19.538063   17.882974   23.851656 C.3        1 MOL1        -0.1415
       9    H6      20.251428   17.209503   24.344961 H          1 MOL1         0.0976
      10    H7      18.667151   17.267129   23.590681 H          1 MOL1         0.0976
      11    C3      20.175760   18.440998   22.554121 C.3        1 MOL1        -0.1375
      12    H8      20.489193   17.589591   21.936269 H          1 MOL1         0.0976
      13    H9      21.091592   18.996303   22.796272 H          1 MOL1         0.0976
      14    C4      19.213760   19.344517   21.741327 C.3        1 MOL1        -0.1375
      15    H10     18.310008   18.778778   21.476109 H          1 MOL1         0.0976
      16    H11     18.880592   20.183300   22.366464 H          1 MOL1         0.0976
      17    C5      19.853088   19.927010   20.457425 C.3        1 MOL1        -0.1350
      18    H12     20.751868   20.503353   20.717711 H          1 MOL1         0.0976
      19    H13     19.149856   20.641878   20.007655 H          1 MOL1         0.0976
      20    C6      20.210345   18.853411   19.404288 C.3        1 MOL1        -0.2365
      21    H14     19.334879   18.241314   19.151497 H          1 MOL1         0.0987
      22    H15     21.005410   18.186840   19.760379 H          1 MOL1         0.0987
      23    H16     20.566964   19.326213   18.480051 H          1 MOL1         0.0987
@<TRIPOS>BOND
    1     1     2    1
    2     1     3    1
    3     1     4    1
    4     1     5    1
    5     5     6    1
    6     5     7    1
    7     5     8    1
    8     8     9    1
    9     8    10    1
   10     8    11    1
   11    11    12    1
   12    11    13    1
   13    11    14    1
   14    14    15    1
   15    14    16    1
   16    14    17    1
   17    17    18    1
   18    17    19    1
   19    17    20    1
   20    20    21    1
   21    20    22    1
   22    20    23    1
@<TRIPOS>SUBSTRUCTURE
       1 MOL1            1 RESIDUE      1      MOL     
@<SCITEGIC>MOL_PROPERTY
VM2 Rank
SciTegic.value.IntegerValue
30

@<SCITEGIC>MOL_PROPERTY
Conf_Id
SciTegic.value.IntegerValue
71

@<SCITEGIC>MOL_PROPERTY
Probability
SciTegic.value.DoubleValue
0.82

@<SCITEGIC>MOL_PROPERTY
Sum Probability
SciTegic.value.DoubleValue
91.78

@<SCITEGIC>MOL_PROPERTY
Delta G
SciTegic.value.DoubleValue
1.600

@<SCITEGIC>MOL_PROPERTY
G
SciTegic.value.DoubleValue
39.516

@<SCITEGIC>MOL_PROPERTY
E
SciTegic.value.DoubleValue
11.626

@<SCITEGIC>MOL_PROPERTY
-TS
SciTegic.value.DoubleValue
27.890

@<SCITEGIC>MOL_PROPERTY
U+W
SciTegic.value.DoubleValue
-7.154

@<SCITEGIC>MOL_PROPERTY
U
SciTegic.value.DoubleValue
48.727

@<SCITEGIC>MOL_PROPERTY
W
SciTegic.value.DoubleValue
-55.880

@<SCITEGIC>MOL_PROPERTY
W(PB)
SciTegic.value.DoubleValue
-57.960

@<SCITEGIC>MOL_PROPERTY
W(SA)
SciTegic.value.DoubleValue
2.080

@<SCITEGIC>MOL_PROPERTY
Valence
SciTegic.value.DoubleValue
2.671

@<SCITEGIC>MOL_PROPERTY
Coulomb
SciTegic.value.DoubleValue
45.371

@<SCITEGIC>MOL_PROPERTY
VdW
SciTegic.value.DoubleValue
0.684

@<SCITEGIC>MOL_PROPERTY
VdW6
SciTegic.value.DoubleValue
-6.511

@<SCITEGIC>MOL_PROPERTY
VdW12
SciTegic.value.DoubleValue
7.195

@<SCITEGIC>MOL_PROPERTY
Bond
SciTegic.value.DoubleValue
0.203

@<SCITEGIC>MOL_PROPERTY
Angle
SciTegic.value.DoubleValue
0.915

@<SCITEGIC>MOL_PROPERTY
Pdih
SciTegic.value.DoubleValue
1.554

@<SCITEGIC>MOL_PROPERTY
Idih
SciTegic.value.DoubleValue
0.000

@<SCITEGIC>MOL_PROPERTY
Tether
SciTegic.value.DoubleValue
0.000

@<TRIPOS>MOLECULE
guest-2_vm2.mol2 : vm2 ligand conformer 31
          23          22           1
SMALL
USER_CHARGES
 
@<TRIPOS>ATOM
       1    N1      20.354121   17.878869   24.947067 N.4        1 MOL1        -0.5940
       2    H1      19.590710   17.357443   25.389664 H          1 MOL1         0.3649
       3    H2      21.194130   17.717708   25.512985 H          1 MOL1         0.3649
       4    H3      20.521796   17.452479   24.030716 H          1 MOL1         0.3649
       5    C1      20.031227   19.355167   24.825885 C.3        1 MOL1         0.0207
       6    H4      20.893561   19.854979   24.377239 H          1 MOL1         0.0950
       7    H5      19.898118   19.750971   25.836400 H          1 MOL1         0.0950
       8    C2      18.767166   19.646631   23.991565 C.3        1 MOL1        -0.1415
       9    H6      17.900095   19.179422   24.477048 H          1 MOL1         0.0976
      10    H7      18.578562   20.728345   24.004427 H          1 MOL1         0.0976
      11    C3      18.855963   19.160718   22.523034 C.3        1 MOL1        -0.1375
      12    H8      17.909466   19.397975   22.018094 H          1 MOL1         0.0976
      13    H9      18.946946   18.067342   22.504159 H          1 MOL1         0.0976
      14    C4      20.025807   19.808027   21.739496 C.3        1 MOL1        -0.1375
      15    H10     19.964723   20.900275   21.842116 H          1 MOL1         0.0976
      16    H11     20.987144   19.509182   22.178192 H          1 MOL1         0.0976
      17    C5      20.024497   19.455056   20.232578 C.3        1 MOL1        -0.1350
      18    H12     20.814406   20.034078   19.733967 H          1 MOL1         0.0976
      19    H13     19.076461   19.773084   19.776655 H          1 MOL1         0.0976
      20    C6      20.257220   17.952533   19.954375 C.3        1 MOL1        -0.2365
      21    H14     21.186605   17.603335   20.422606 H          1 MOL1         0.0987
      22    H15     20.336627   17.769900   18.874895 H          1 MOL1         0.0987
      23    H16     19.429556   17.339442   20.331868 H          1 MOL1         0.0987
@<TRIPOS>BOND
    1     1     2    1
    2     1     3    1
    3     1     4    1
    4     1     5    1
    5     5     6    1
    6     5     7    1
    7     5     8    1
    8     8     9    1
    9     8    10    1
   10     8    11    1
   11    11    12    1
   12    11    13    1
   13    11    14    1
   14    14    15    1
   15    14    16    1
   16    14    17    1
   17    17    18    1
   18    17    19    1
   19    17    20    1
   20    20    21    1
   21    20    22    1
   22    20    23    1
@<TRIPOS>SUBSTRUCTURE
       1 MOL1            1 RESIDUE      1      MOL     
@<SCITEGIC>MOL_PROPERTY
VM2 Rank
SciTegic.value.IntegerValue
31

@<SCITEGIC>MOL_PROPERTY
Conf_Id
SciTegic.value.IntegerValue
334

@<SCITEGIC>MOL_PROPERTY
Probability
SciTegic.value.DoubleValue
0.82

@<SCITEGIC>MOL_PROPERTY
Sum Probability
SciTegic.value.DoubleValue
92.59

@<SCITEGIC>MOL_PROPERTY
Delta G
SciTegic.value.DoubleValue
1.602

@<SCITEGIC>MOL_PROPERTY
G
SciTegic.value.DoubleValue
39.519

@<SCITEGIC>MOL_PROPERTY
E
SciTegic.value.DoubleValue
11.590

@<SCITEGIC>MOL_PROPERTY
-TS
SciTegic.value.DoubleValue
27.929

@<SCITEGIC>MOL_PROPERTY
U+W
SciTegic.value.DoubleValue
-7.189

@<SCITEGIC>MOL_PROPERTY
U
SciTegic.value.DoubleValue
48.775

@<SCITEGIC>MOL_PROPERTY
W
SciTegic.value.DoubleValue
-55.965

@<SCITEGIC>MOL_PROPERTY
W(PB)
SciTegic.value.DoubleValue
-58.037

@<SCITEGIC>MOL_PROPERTY
W(SA)
SciTegic.value.DoubleValue
2.073

@<SCITEGIC>MOL_PROPERTY
Valence
SciTegic.value.DoubleValue
2.602

@<SCITEGIC>MOL_PROPERTY
Coulomb
SciTegic.value.DoubleValue
45.581

@<SCITEGIC>MOL_PROPERTY
VdW
SciTegic.value.DoubleValue
0.592

@<SCITEGIC>MOL_PROPERTY
VdW6
SciTegic.value.DoubleValue
-6.616

@<SCITEGIC>MOL_PROPERTY
VdW12
SciTegic.value.DoubleValue
7.208

@<SCITEGIC>MOL_PROPERTY
Bond
SciTegic.value.DoubleValue
0.196

@<SCITEGIC>MOL_PROPERTY
Angle
SciTegic.value.DoubleValue
0.832

@<SCITEGIC>MOL_PROPERTY
Pdih
SciTegic.value.DoubleValue
1.574

@<SCITEGIC>MOL_PROPERTY
Idih
SciTegic.value.DoubleValue
0.000

@<SCITEGIC>MOL_PROPERTY
Tether
SciTegic.value.DoubleValue
0.000

@<TRIPOS>MOLECULE
guest-2_vm2.mol2 : vm2 ligand conformer 32
          23          22           1
SMALL
USER_CHARGES
 
@<TRIPOS>ATOM
       1    N1      18.646519   19.182506   25.277916 N.4        1 MOL1        -0.5940
       2    H1      18.324826   19.887676   25.949545 H          1 MOL1         0.3649
       3    H2      18.489293   18.265723   25.708429 H          1 MOL1         0.3649
       4    H3      18.031991   19.243152   24.460433 H          1 MOL1         0.3649
       5    C1      20.100788   19.385542   24.900857 C.3        1 MOL1         0.0207
       6    H4      20.691689   19.343112   25.819857 H          1 MOL1         0.0950
       7    H5      20.204833   20.388059   24.478214 H          1 MOL1         0.0950
       8    C2      20.634341   18.338582   23.901621 C.3        1 MOL1        -0.1415
       9    H6      21.702044   18.528480   23.728963 H          1 MOL1         0.0976
      10    H7      20.571547   17.342522   24.359578 H          1 MOL1         0.0976
      11    C3      19.892228   18.323096   22.541227 C.3        1 MOL1        -0.1375
      12    H8      18.837295   18.059189   22.693601 H          1 MOL1         0.0976
      13    H9      20.322475   17.520269   21.928667 H          1 MOL1         0.0976
      14    C4      19.991526   19.667811   21.776826 C.3        1 MOL1        -0.1375
      15    H10     19.583427   20.475436   22.398559 H          1 MOL1         0.0976
      16    H11     21.047144   19.916606   21.600921 H          1 MOL1         0.0976
      17    C5      19.229942   19.667941   20.429074 C.3        1 MOL1        -0.1350
      18    H12     19.252660   20.684704   20.012493 H          1 MOL1         0.0976
      19    H13     18.170735   19.430124   20.600095 H          1 MOL1         0.0976
      20    C6      19.820656   18.691520   19.386479 C.3        1 MOL1        -0.2365
      21    H14     19.706624   17.646878   19.701062 H          1 MOL1         0.0987
      22    H15     20.888196   18.887424   19.222203 H          1 MOL1         0.0987
      23    H16     19.307261   18.802626   18.422624 H          1 MOL1         0.0987
@<TRIPOS>BOND
    1     1     2    1
    2     1     3    1
    3     1     4    1
    4     1     5    1
    5     5     6    1
    6     5     7    1
    7     5     8    1
    8     8     9    1
    9     8    10    1
   10     8    11    1
   11    11    12    1
   12    11    13    1
   13    11    14    1
   14    14    15    1
   15    14    16    1
   16    14    17    1
   17    17    18    1
   18    17    19    1
   19    17    20    1
   20    20    21    1
   21    20    22    1
   22    20    23    1
@<TRIPOS>SUBSTRUCTURE
       1 MOL1            1 RESIDUE      1      MOL     
@<SCITEGIC>MOL_PROPERTY
VM2 Rank
SciTegic.value.IntegerValue
32

@<SCITEGIC>MOL_PROPERTY
Conf_Id
SciTegic.value.IntegerValue
105

@<SCITEGIC>MOL_PROPERTY
Probability
SciTegic.value.DoubleValue
0.79

@<SCITEGIC>MOL_PROPERTY
Sum Probability
SciTegic.value.DoubleValue
93.38

@<SCITEGIC>MOL_PROPERTY
Delta G
SciTegic.value.DoubleValue
1.623

@<SCITEGIC>MOL_PROPERTY
G
SciTegic.value.DoubleValue
39.539

@<SCITEGIC>MOL_PROPERTY
E
SciTegic.value.DoubleValue
11.649

@<SCITEGIC>MOL_PROPERTY
-TS
SciTegic.value.DoubleValue
27.890

@<SCITEGIC>MOL_PROPERTY
U+W
SciTegic.value.DoubleValue
-7.130

@<SCITEGIC>MOL_PROPERTY
U
SciTegic.value.DoubleValue
48.727

@<SCITEGIC>MOL_PROPERTY
W
SciTegic.value.DoubleValue
-55.857

@<SCITEGIC>MOL_PROPERTY
W(PB)
SciTegic.value.DoubleValue
-57.937

@<SCITEGIC>MOL_PROPERTY
W(SA)
SciTegic.value.DoubleValue
2.080

@<SCITEGIC>MOL_PROPERTY
Valence
SciTegic.value.DoubleValue
2.671

@<SCITEGIC>MOL_PROPERTY
Coulomb
SciTegic.value.DoubleValue
45.371

@<SCITEGIC>MOL_PROPERTY
VdW
SciTegic.value.DoubleValue
0.684

@<SCITEGIC>MOL_PROPERTY
VdW6
SciTegic.value.DoubleValue
-6.511

@<SCITEGIC>MOL_PROPERTY
VdW12
SciTegic.value.DoubleValue
7.196

@<SCITEGIC>MOL_PROPERTY
Bond
SciTegic.value.DoubleValue
0.203

@<SCITEGIC>MOL_PROPERTY
Angle
SciTegic.value.DoubleValue
0.915

@<SCITEGIC>MOL_PROPERTY
Pdih
SciTegic.value.DoubleValue
1.554

@<SCITEGIC>MOL_PROPERTY
Idih
SciTegic.value.DoubleValue
0.000

@<SCITEGIC>MOL_PROPERTY
Tether
SciTegic.value.DoubleValue
0.000

@<TRIPOS>MOLECULE
guest-2_vm2.mol2 : vm2 ligand conformer 33
          23          22           1
SMALL
USER_CHARGES
 
@<TRIPOS>ATOM
       1    N1      19.951677   18.107760   25.288526 N.4        1 MOL1        -0.5940
       2    H1      20.131727   18.729267   26.083396 H          1 MOL1         0.3649
       3    H2      20.846718   17.956249   24.813753 H          1 MOL1         0.3649
       4    H3      19.658623   17.204309   25.675385 H          1 MOL1         0.3649
       5    C1      18.910435   18.683193   24.348885 C.3        1 MOL1         0.0207
       6    H4      17.978559   18.791541   24.910457 H          1 MOL1         0.0950
       7    H5      18.741049   17.960815   23.546125 H          1 MOL1         0.0950
       8    C2      19.307324   20.046236   23.746910 C.3        1 MOL1        -0.1415
       9    H6      18.471847   20.423806   23.143723 H          1 MOL1         0.0976
      10    H7      19.441071   20.772309   24.559711 H          1 MOL1         0.0976
      11    C3      20.596433   20.003187   22.884732 C.3        1 MOL1        -0.1375
      12    H8      21.458142   19.792481   23.532261 H          1 MOL1         0.0976
      13    H9      20.776773   21.003533   22.467611 H          1 MOL1         0.0976
      14    C4      20.574722   18.969674   21.728799 C.3        1 MOL1        -0.1375
      15    H10     21.543185   19.008879   21.211229 H          1 MOL1         0.0976
      16    H11     20.489688   17.952571   22.133969 H          1 MOL1         0.0976
      17    C5      19.445815   19.216404   20.700409 C.3        1 MOL1        -0.1350
      18    H12     19.506923   20.246513   20.322450 H          1 MOL1         0.0976
      19    H13     18.464680   19.111505   21.182394 H          1 MOL1         0.0976
      20    C6      19.529594   18.230546   19.515737 C.3        1 MOL1        -0.2365
      21    H14     18.720654   18.417789   18.797705 H          1 MOL1         0.0987
      22    H15     19.440916   17.191835   19.859861 H          1 MOL1         0.0987
      23    H16     20.483560   18.333817   18.982373 H          1 MOL1         0.0987
@<TRIPOS>BOND
    1     1     2    1
    2     1     3    1
    3     1     4    1
    4     1     5    1
    5     5     6    1
    6     5     7    1
    7     5     8    1
    8     8     9    1
    9     8    10    1
   10     8    11    1
   11    11    12    1
   12    11    13    1
   13    11    14    1
   14    14    15    1
   15    14    16    1
   16    14    17    1
   17    17    18    1
   18    17    19    1
   19    17    20    1
   20    20    21    1
   21    20    22    1
   22    20    23    1
@<TRIPOS>SUBSTRUCTURE
       1 MOL1            1 RESIDUE      1      MOL     
@<SCITEGIC>MOL_PROPERTY
VM2 Rank
SciTegic.value.IntegerValue
33

@<SCITEGIC>MOL_PROPERTY
Conf_Id
SciTegic.value.IntegerValue
331

@<SCITEGIC>MOL_PROPERTY
Probability
SciTegic.value.DoubleValue
0.77

@<SCITEGIC>MOL_PROPERTY
Sum Probability
SciTegic.value.DoubleValue
94.15

@<SCITEGIC>MOL_PROPERTY
Delta G
SciTegic.value.DoubleValue
1.638

@<SCITEGIC>MOL_PROPERTY
G
SciTegic.value.DoubleValue
39.555

@<SCITEGIC>MOL_PROPERTY
E
SciTegic.value.DoubleValue
11.494

@<SCITEGIC>MOL_PROPERTY
-TS
SciTegic.value.DoubleValue
28.060

@<SCITEGIC>MOL_PROPERTY
U+W
SciTegic.value.DoubleValue
-7.285

@<SCITEGIC>MOL_PROPERTY
U
SciTegic.value.DoubleValue
48.590

@<SCITEGIC>MOL_PROPERTY
W
SciTegic.value.DoubleValue
-55.875

@<SCITEGIC>MOL_PROPERTY
W(PB)
SciTegic.value.DoubleValue
-57.962

@<SCITEGIC>MOL_PROPERTY
W(SA)
SciTegic.value.DoubleValue
2.087

@<SCITEGIC>MOL_PROPERTY
Valence
SciTegic.value.DoubleValue
2.601

@<SCITEGIC>MOL_PROPERTY
Coulomb
SciTegic.value.DoubleValue
45.520

@<SCITEGIC>MOL_PROPERTY
VdW
SciTegic.value.DoubleValue
0.469

@<SCITEGIC>MOL_PROPERTY
VdW6
SciTegic.value.DoubleValue
-6.867

@<SCITEGIC>MOL_PROPERTY
VdW12
SciTegic.value.DoubleValue
7.336

@<SCITEGIC>MOL_PROPERTY
Bond
SciTegic.value.DoubleValue
0.205

@<SCITEGIC>MOL_PROPERTY
Angle
SciTegic.value.DoubleValue
0.962

@<SCITEGIC>MOL_PROPERTY
Pdih
SciTegic.value.DoubleValue
1.434

@<SCITEGIC>MOL_PROPERTY
Idih
SciTegic.value.DoubleValue
0.000

@<SCITEGIC>MOL_PROPERTY
Tether
SciTegic.value.DoubleValue
0.000

@<TRIPOS>MOLECULE
guest-2_vm2.mol2 : vm2 ligand conformer 34
          23          22           1
SMALL
USER_CHARGES
 
@<TRIPOS>ATOM
       1    N1      19.675190   18.605211   25.786620 N.4        1 MOL1        -0.5940
       2    H1      19.119500   18.502285   26.642512 H          1 MOL1         0.3649
       3    H2      20.577894   19.004530   26.062862 H          1 MOL1         0.3649
       4    H3      19.857095   17.661195   25.432823 H          1 MOL1         0.3649
       5    C1      18.969076   19.466434   24.757490 C.3        1 MOL1         0.0207
       6    H4      18.772509   20.438139   25.218705 H          1 MOL1         0.0950
       7    H5      18.008183   18.999460   24.525045 H          1 MOL1         0.0950
       8    C2      19.773589   19.671898   23.459221 C.3        1 MOL1        -0.1415
       9    H6      19.233233   20.396957   22.837893 H          1 MOL1         0.0976
      10    H7      20.745619   20.123607   23.697528 H          1 MOL1         0.0976
      11    C3      19.978493   18.355624   22.668117 C.3        1 MOL1        -0.1375
      12    H8      19.003032   17.918957   22.415781 H          1 MOL1         0.0976
      13    H9      20.481734   17.619762   23.308939 H          1 MOL1         0.0976
      14    C4      20.828249   18.530883   21.382630 C.3        1 MOL1        -0.1375
      15    H10     21.835563   18.867851   21.663662 H          1 MOL1         0.0976
      16    H11     20.961639   17.546726   20.912675 H          1 MOL1         0.0976
      17    C5      20.249196   19.511624   20.330931 C.3        1 MOL1        -0.1350
      18    H12     20.933856   19.546402   19.471996 H          1 MOL1         0.0976
      19    H13     20.224951   20.532329   20.735298 H          1 MOL1         0.0976
      20    C6      18.842207   19.115326   19.828991 C.3        1 MOL1        -0.2365
      21    H14     18.519431   19.784750   19.021189 H          1 MOL1         0.0987
      22    H15     18.095954   19.181567   20.630464 H          1 MOL1         0.0987
      23    H16     18.837284   18.089785   19.437596 H          1 MOL1         0.0987
@<TRIPOS>BOND
    1     1     2    1
    2     1     3    1
    3     1     4    1
    4     1     5    1
    5     5     6    1
    6     5     7    1
    7     5     8    1
    8     8     9    1
    9     8    10    1
   10     8    11    1
   11    11    12    1
   12    11    13    1
   13    11    14    1
   14    14    15    1
   15    14    16    1
   16    14    17    1
   17    17    18    1
   18    17    19    1
   19    17    20    1
   20    20    21    1
   21    20    22    1
   22    20    23    1
@<TRIPOS>SUBSTRUCTURE
       1 MOL1            1 RESIDUE      1      MOL     
@<SCITEGIC>MOL_PROPERTY
VM2 Rank
SciTegic.value.IntegerValue
34

@<SCITEGIC>MOL_PROPERTY
Conf_Id
SciTegic.value.IntegerValue
484

@<SCITEGIC>MOL_PROPERTY
Probability
SciTegic.value.DoubleValue
0.74

@<SCITEGIC>MOL_PROPERTY
Sum Probability
SciTegic.value.DoubleValue
94.88

@<SCITEGIC>MOL_PROPERTY
Delta G
SciTegic.value.DoubleValue
1.663

@<SCITEGIC>MOL_PROPERTY
G
SciTegic.value.DoubleValue
39.580

@<SCITEGIC>MOL_PROPERTY
E
SciTegic.value.DoubleValue
11.541

@<SCITEGIC>MOL_PROPERTY
-TS
SciTegic.value.DoubleValue
28.039

@<SCITEGIC>MOL_PROPERTY
U+W
SciTegic.value.DoubleValue
-7.238

@<SCITEGIC>MOL_PROPERTY
U
SciTegic.value.DoubleValue
48.503

@<SCITEGIC>MOL_PROPERTY
W
SciTegic.value.DoubleValue
-55.741

@<SCITEGIC>MOL_PROPERTY
W(PB)
SciTegic.value.DoubleValue
-57.819

@<SCITEGIC>MOL_PROPERTY
W(SA)
SciTegic.value.DoubleValue
2.078

@<SCITEGIC>MOL_PROPERTY
Valence
SciTegic.value.DoubleValue
2.824

@<SCITEGIC>MOL_PROPERTY
Coulomb
SciTegic.value.DoubleValue
44.990

@<SCITEGIC>MOL_PROPERTY
VdW
SciTegic.value.DoubleValue
0.689

@<SCITEGIC>MOL_PROPERTY
VdW6
SciTegic.value.DoubleValue
-6.667

@<SCITEGIC>MOL_PROPERTY
VdW12
SciTegic.value.DoubleValue
7.356

@<SCITEGIC>MOL_PROPERTY
Bond
SciTegic.value.DoubleValue
0.219

@<SCITEGIC>MOL_PROPERTY
Angle
SciTegic.value.DoubleValue
1.118

@<SCITEGIC>MOL_PROPERTY
Pdih
SciTegic.value.DoubleValue
1.487

@<SCITEGIC>MOL_PROPERTY
Idih
SciTegic.value.DoubleValue
0.000

@<SCITEGIC>MOL_PROPERTY
Tether
SciTegic.value.DoubleValue
0.000

@<TRIPOS>MOLECULE
guest-2_vm2.mol2 : vm2 ligand conformer 35
          23          22           1
SMALL
USER_CHARGES
 
@<TRIPOS>ATOM
       1    N1      19.980096   17.723185   24.929934 N.4        1 MOL1        -0.5940
       2    H1      20.235476   17.333322   24.017569 H          1 MOL1         0.3649
       3    H2      19.460797   16.996375   25.433845 H          1 MOL1         0.3649
       4    H3      20.850748   17.881706   25.447049 H          1 MOL1         0.3649
       5    C1      19.170667   18.997032   24.786614 C.3        1 MOL1         0.0207
       6    H4      18.905389   19.337798   25.791116 H          1 MOL1         0.0950
       7    H5      18.246359   18.753406   24.256502 H          1 MOL1         0.0950
       8    C2      19.916108   20.124714   24.043957 C.3        1 MOL1        -0.1415
       9    H6      19.281471   21.020830   24.036537 H          1 MOL1         0.0976
      10    H7      20.817806   20.393478   24.610080 H          1 MOL1         0.0976
      11    C3      20.311806   19.766583   22.589397 C.3        1 MOL1        -0.1375
      12    H8      21.023669   18.931558   22.598788 H          1 MOL1         0.0976
      13    H9      20.847232   20.620494   22.152057 H          1 MOL1         0.0976
      14    C4      19.093209   19.420110   21.696955 C.3        1 MOL1        -0.1375
      15    H10     18.596012   18.514484   22.069203 H          1 MOL1         0.0976
      16    H11     18.354744   20.230545   21.768610 H          1 MOL1         0.0976
      17    C5      19.461026   19.220574   20.206893 C.3        1 MOL1        -0.1350
      18    H12     19.936684   20.130847   19.815826 H          1 MOL1         0.0976
      19    H13     18.535327   19.085822   19.630038 H          1 MOL1         0.0976
      20    C6      20.383088   18.004801   19.960250 C.3        1 MOL1        -0.2365
      21    H14     21.368795   18.146123   20.420489 H          1 MOL1         0.0987
      22    H15     20.540504   17.854530   18.884344 H          1 MOL1         0.0987
      23    H16     19.941607   17.085344   20.365997 H          1 MOL1         0.0987
@<TRIPOS>BOND
    1     1     2    1
    2     1     3    1
    3     1     4    1
    4     1     5    1
    5     5     6    1
    6     5     7    1
    7     5     8    1
    8     8     9    1
    9     8    10    1
   10     8    11    1
   11    11    12    1
   12    11    13    1
   13    11    14    1
   14    14    15    1
   15    14    16    1
   16    14    17    1
   17    17    18    1
   18    17    19    1
   19    17    20    1
   20    20    21    1
   21    20    22    1
   22    20    23    1
@<TRIPOS>SUBSTRUCTURE
       1 MOL1            1 RESIDUE      1      MOL     
@<SCITEGIC>MOL_PROPERTY
VM2 Rank
SciTegic.value.IntegerValue
35

@<SCITEGIC>MOL_PROPERTY
Conf_Id
SciTegic.value.IntegerValue
342

@<SCITEGIC>MOL_PROPERTY
Probability
SciTegic.value.DoubleValue
0.71

@<SCITEGIC>MOL_PROPERTY
Sum Probability
SciTegic.value.DoubleValue
95.60

@<SCITEGIC>MOL_PROPERTY
Delta G
SciTegic.value.DoubleValue
1.681

@<SCITEGIC>MOL_PROPERTY
G
SciTegic.value.DoubleValue
39.598

@<SCITEGIC>MOL_PROPERTY
E
SciTegic.value.DoubleValue
11.669

@<SCITEGIC>MOL_PROPERTY
-TS
SciTegic.value.DoubleValue
27.929

@<SCITEGIC>MOL_PROPERTY
U+W
SciTegic.value.DoubleValue
-7.110

@<SCITEGIC>MOL_PROPERTY
U
SciTegic.value.DoubleValue
48.775

@<SCITEGIC>MOL_PROPERTY
W
SciTegic.value.DoubleValue
-55.886

@<SCITEGIC>MOL_PROPERTY
W(PB)
SciTegic.value.DoubleValue
-57.959

@<SCITEGIC>MOL_PROPERTY
W(SA)
SciTegic.value.DoubleValue
2.073

@<SCITEGIC>MOL_PROPERTY
Valence
SciTegic.value.DoubleValue
2.602

@<SCITEGIC>MOL_PROPERTY
Coulomb
SciTegic.value.DoubleValue
45.581

@<SCITEGIC>MOL_PROPERTY
VdW
SciTegic.value.DoubleValue
0.592

@<SCITEGIC>MOL_PROPERTY
VdW6
SciTegic.value.DoubleValue
-6.616

@<SCITEGIC>MOL_PROPERTY
VdW12
SciTegic.value.DoubleValue
7.209

@<SCITEGIC>MOL_PROPERTY
Bond
SciTegic.value.DoubleValue
0.196

@<SCITEGIC>MOL_PROPERTY
Angle
SciTegic.value.DoubleValue
0.832

@<SCITEGIC>MOL_PROPERTY
Pdih
SciTegic.value.DoubleValue
1.574

@<SCITEGIC>MOL_PROPERTY
Idih
SciTegic.value.DoubleValue
0.000

@<SCITEGIC>MOL_PROPERTY
Tether
SciTegic.value.DoubleValue
0.000

@<TRIPOS>MOLECULE
guest-2_vm2.mol2 : vm2 ligand conformer 36
          23          22           1
SMALL
USER_CHARGES
 
@<TRIPOS>ATOM
       1    N1      20.211395   17.952952   25.245011 N.4        1 MOL1        -0.5940
       2    H1      20.361808   17.812453   26.249792 H          1 MOL1         0.3649
       3    H2      21.132836   18.099706   24.822060 H          1 MOL1         0.3649
       4    H3      19.842720   17.072334   24.872056 H          1 MOL1         0.3649
       5    C1      19.276478   19.115451   24.973615 C.3        1 MOL1         0.0207
       6    H4      19.714066   20.013690   25.417549 H          1 MOL1         0.0950
       7    H5      18.332281   18.908305   25.484632 H          1 MOL1         0.0950
       8    C2      19.005089   19.356464   23.476127 C.3        1 MOL1        -0.1415
       9    H6      18.566547   18.449853   23.040208 H          1 MOL1         0.0976
      10    H7      18.250417   20.148502   23.382111 H          1 MOL1         0.0976
      11    C3      20.280154   19.767842   22.698641 C.3        1 MOL1        -0.1375
      12    H8      21.015188   18.953165   22.719302 H          1 MOL1         0.0976
      13    H9      20.753145   20.615969   23.212830 H          1 MOL1         0.0976
      14    C4      20.001415   20.181063   21.230347 C.3        1 MOL1        -0.1375
      15    H10     19.356680   21.070724   21.225589 H          1 MOL1         0.0976
      16    H11     20.947125   20.493485   20.766424 H          1 MOL1         0.0976
      17    C5      19.348259   19.086494   20.348179 C.3        1 MOL1        -0.1350
      18    H12     19.198030   19.494712   19.338965 H          1 MOL1         0.0976
      19    H13     18.345927   18.842936   20.725163 H          1 MOL1         0.0976
      20    C6      20.193210   17.796734   20.242079 C.3        1 MOL1        -0.2365
      21    H14     21.207773   18.017858   19.886123 H          1 MOL1         0.0987
      22    H15     19.734729   17.093873   19.534527 H          1 MOL1         0.0987
      23    H16     20.271462   17.286455   21.210057 H          1 MOL1         0.0987
@<TRIPOS>BOND
    1     1     2    1
    2     1     3    1
    3     1     4    1
    4     1     5    1
    5     5     6    1
    6     5     7    1
    7     5     8    1
    8     8     9    1
    9     8    10    1
   10     8    11    1
   11    11    12    1
   12    11    13    1
   13    11    14    1
   14    14    15    1
   15    14    16    1
   16    14    17    1
   17    17    18    1
   18    17    19    1
   19    17    20    1
   20    20    21    1
   21    20    22    1
   22    20    23    1
@<TRIPOS>SUBSTRUCTURE
       1 MOL1            1 RESIDUE      1      MOL     
@<SCITEGIC>MOL_PROPERTY
VM2 Rank
SciTegic.value.IntegerValue
36

@<SCITEGIC>MOL_PROPERTY
Conf_Id
SciTegic.value.IntegerValue
354

@<SCITEGIC>MOL_PROPERTY
Probability
SciTegic.value.DoubleValue
0.69

@<SCITEGIC>MOL_PROPERTY
Sum Probability
SciTegic.value.DoubleValue
96.29

@<SCITEGIC>MOL_PROPERTY
Delta G
SciTegic.value.DoubleValue
1.701

@<SCITEGIC>MOL_PROPERTY
G
SciTegic.value.DoubleValue
39.618

@<SCITEGIC>MOL_PROPERTY
E
SciTegic.value.DoubleValue
11.563

@<SCITEGIC>MOL_PROPERTY
-TS
SciTegic.value.DoubleValue
28.055

@<SCITEGIC>MOL_PROPERTY
U+W
SciTegic.value.DoubleValue
-7.216

@<SCITEGIC>MOL_PROPERTY
U
SciTegic.value.DoubleValue
48.781

@<SCITEGIC>MOL_PROPERTY
W
SciTegic.value.DoubleValue
-55.997

@<SCITEGIC>MOL_PROPERTY
W(PB)
SciTegic.value.DoubleValue
-58.047

@<SCITEGIC>MOL_PROPERTY
W(SA)
SciTegic.value.DoubleValue
2.050

@<SCITEGIC>MOL_PROPERTY
Valence
SciTegic.value.DoubleValue
2.784

@<SCITEGIC>MOL_PROPERTY
Coulomb
SciTegic.value.DoubleValue
45.396

@<SCITEGIC>MOL_PROPERTY
VdW
SciTegic.value.DoubleValue
0.600

@<SCITEGIC>MOL_PROPERTY
VdW6
SciTegic.value.DoubleValue
-6.752

@<SCITEGIC>MOL_PROPERTY
VdW12
SciTegic.value.DoubleValue
7.352

@<SCITEGIC>MOL_PROPERTY
Bond
SciTegic.value.DoubleValue
0.213

@<SCITEGIC>MOL_PROPERTY
Angle
SciTegic.value.DoubleValue
1.043

@<SCITEGIC>MOL_PROPERTY
Pdih
SciTegic.value.DoubleValue
1.528

@<SCITEGIC>MOL_PROPERTY
Idih
SciTegic.value.DoubleValue
0.000

@<SCITEGIC>MOL_PROPERTY
Tether
SciTegic.value.DoubleValue
0.000

@<TRIPOS>MOLECULE
guest-2_vm2.mol2 : vm2 ligand conformer 37
          23          22           1
SMALL
USER_CHARGES
 
@<TRIPOS>ATOM
       1    N1      20.004559   17.866903   25.235582 N.4        1 MOL1        -0.5940
       2    H1      20.915745   17.518761   24.920877 H          1 MOL1         0.3649
       3    H2      19.286654   17.331659   24.737980 H          1 MOL1         0.3649
       4    H3      19.920619   17.628867   26.229685 H          1 MOL1         0.3649
       5    C1      19.858709   19.357687   25.000165 C.3        1 MOL1         0.0207
       6    H4      20.628469   19.863609   25.589290 H          1 MOL1         0.0950
       7    H5      18.881142   19.667161   25.379616 H          1 MOL1         0.0950
       8    C2      19.994677   19.768200   23.521247 C.3        1 MOL1        -0.1415
       9    H6      19.970790   20.864300   23.460545 H          1 MOL1         0.0976
      10    H7      20.978245   19.453303   23.150139 H          1 MOL1         0.0976
      11    C3      18.868800   19.180608   22.634322 C.3        1 MOL1        -0.1375
      12    H8      17.896394   19.427317   23.082640 H          1 MOL1         0.0976
      13    H9      18.928198   18.084813   22.624162 H          1 MOL1         0.0976
      14    C4      18.885719   19.716887   21.179520 C.3        1 MOL1        -0.1375
      15    H10     18.036689   19.282663   20.633811 H          1 MOL1         0.0976
      16    H11     18.708708   20.801134   21.196116 H          1 MOL1         0.0976
      17    C5      20.187575   19.435693   20.386415 C.3        1 MOL1        -0.1350
      18    H12     21.034325   19.961418   20.847648 H          1 MOL1         0.0976
      19    H13     20.082223   19.862603   19.379254 H          1 MOL1         0.0976
      20    C6      20.515961   17.931022   20.256751 C.3        1 MOL1        -0.2365
      21    H14     20.747392   17.484437   21.231682 H          1 MOL1         0.0987
      22    H15     21.390225   17.782670   19.609832 H          1 MOL1         0.0987
      23    H16     19.674844   17.380112   19.816340 H          1 MOL1         0.0987
@<TRIPOS>BOND
    1     1     2    1
    2     1     3    1
    3     1     4    1
    4     1     5    1
    5     5     6    1
    6     5     7    1
    7     5     8    1
    8     8     9    1
    9     8    10    1
   10     8    11    1
   11    11    12    1
   12    11    13    1
   13    11    14    1
   14    14    15    1
   15    14    16    1
   16    14    17    1
   17    17    18    1
   18    17    19    1
   19    17    20    1
   20    20    21    1
   21    20    22    1
   22    20    23    1
@<TRIPOS>SUBSTRUCTURE
       1 MOL1            1 RESIDUE      1      MOL     
@<SCITEGIC>MOL_PROPERTY
VM2 Rank
SciTegic.value.IntegerValue
37

@<SCITEGIC>MOL_PROPERTY
Conf_Id
SciTegic.value.IntegerValue
340

@<SCITEGIC>MOL_PROPERTY
Probability
SciTegic.value.DoubleValue
0.65

@<SCITEGIC>MOL_PROPERTY
Sum Probability
SciTegic.value.DoubleValue
96.93

@<SCITEGIC>MOL_PROPERTY
Delta G
SciTegic.value.DoubleValue
1.740

@<SCITEGIC>MOL_PROPERTY
G
SciTegic.value.DoubleValue
39.656

@<SCITEGIC>MOL_PROPERTY
E
SciTegic.value.DoubleValue
11.601

@<SCITEGIC>MOL_PROPERTY
-TS
SciTegic.value.DoubleValue
28.055

@<SCITEGIC>MOL_PROPERTY
U+W
SciTegic.value.DoubleValue
-7.178

@<SCITEGIC>MOL_PROPERTY
U
SciTegic.value.DoubleValue
48.780

@<SCITEGIC>MOL_PROPERTY
W
SciTegic.value.DoubleValue
-55.958

@<SCITEGIC>MOL_PROPERTY
W(PB)
SciTegic.value.DoubleValue
-58.030

@<SCITEGIC>MOL_PROPERTY
W(SA)
SciTegic.value.DoubleValue
2.071

@<SCITEGIC>MOL_PROPERTY
Valence
SciTegic.value.DoubleValue
2.784

@<SCITEGIC>MOL_PROPERTY
Coulomb
SciTegic.value.DoubleValue
45.396

@<SCITEGIC>MOL_PROPERTY
VdW
SciTegic.value.DoubleValue
0.600

@<SCITEGIC>MOL_PROPERTY
VdW6
SciTegic.value.DoubleValue
-6.752

@<SCITEGIC>MOL_PROPERTY
VdW12
SciTegic.value.DoubleValue
7.352

@<SCITEGIC>MOL_PROPERTY
Bond
SciTegic.value.DoubleValue
0.213

@<SCITEGIC>MOL_PROPERTY
Angle
SciTegic.value.DoubleValue
1.043

@<SCITEGIC>MOL_PROPERTY
Pdih
SciTegic.value.DoubleValue
1.528

@<SCITEGIC>MOL_PROPERTY
Idih
SciTegic.value.DoubleValue
0.000

@<SCITEGIC>MOL_PROPERTY
Tether
SciTegic.value.DoubleValue
0.000

@<TRIPOS>MOLECULE
guest-2_vm2.mol2 : vm2 ligand conformer 38
          23          22           1
SMALL
USER_CHARGES
 
@<TRIPOS>ATOM
       1    N1      19.215118   18.152399   25.591283 N.4        1 MOL1        -0.5940
       2    H1      20.039026   18.168879   26.200945 H          1 MOL1         0.3649
       3    H2      19.120261   17.194788   25.238229 H          1 MOL1         0.3649
       4    H3      18.400089   18.332737   26.187240 H          1 MOL1         0.3649
       5    C1      19.324325   19.161790   24.466633 C.3        1 MOL1         0.0207
       6    H4      19.393129   20.157947   24.911925 H          1 MOL1         0.0950
       7    H5      18.404272   19.110381   23.878592 H          1 MOL1         0.0950
       8    C2      20.539349   18.918252   23.552181 C.3        1 MOL1        -0.1415
       9    H6      21.454549   18.935042   24.158690 H          1 MOL1         0.0976
      10    H7      20.478127   17.913514   23.114934 H          1 MOL1         0.0976
      11    C3      20.664229   19.977874   22.429384 C.3        1 MOL1        -0.1375
      12    H8      21.558237   19.761592   21.829448 H          1 MOL1         0.0976
      13    H9      20.845911   20.960040   22.887264 H          1 MOL1         0.0976
      14    C4      19.427662   20.087862   21.496881 C.3        1 MOL1        -0.1375
      15    H10     18.570471   20.465236   22.070564 H          1 MOL1         0.0976
      16    H11     19.630915   20.851973   20.733997 H          1 MOL1         0.0976
      17    C5      19.016647   18.771859   20.788769 C.3        1 MOL1        -0.1350
      18    H12     18.129230   18.968971   20.171250 H          1 MOL1         0.0976
      19    H13     18.706653   18.022687   21.529555 H          1 MOL1         0.0976
      20    C6      20.128671   18.186963   19.888870 C.3        1 MOL1        -0.2365
      21    H14     20.463932   18.923509   19.147223 H          1 MOL1         0.0987
      22    H15     19.760845   17.306898   19.345703 H          1 MOL1         0.0987
      23    H16     20.998841   17.871868   20.478002 H          1 MOL1         0.0987
@<TRIPOS>BOND
    1     1     2    1
    2     1     3    1
    3     1     4    1
    4     1     5    1
    5     5     6    1
    6     5     7    1
    7     5     8    1
    8     8     9    1
    9     8    10    1
   10     8    11    1
   11    11    12    1
   12    11    13    1
   13    11    14    1
   14    14    15    1
   15    14    16    1
   16    14    17    1
   17    17    18    1
   18    17    19    1
   19    17    20    1
   20    20    21    1
   21    20    22    1
   22    20    23    1
@<TRIPOS>SUBSTRUCTURE
       1 MOL1            1 RESIDUE      1      MOL     
@<SCITEGIC>MOL_PROPERTY
VM2 Rank
SciTegic.value.IntegerValue
38

@<SCITEGIC>MOL_PROPERTY
Conf_Id
SciTegic.value.IntegerValue
288

@<SCITEGIC>MOL_PROPERTY
Probability
SciTegic.value.DoubleValue
0.65

@<SCITEGIC>MOL_PROPERTY
Sum Probability
SciTegic.value.DoubleValue
97.58

@<SCITEGIC>MOL_PROPERTY
Delta G
SciTegic.value.DoubleValue
1.740

@<SCITEGIC>MOL_PROPERTY
G
SciTegic.value.DoubleValue
39.656

@<SCITEGIC>MOL_PROPERTY
E
SciTegic.value.DoubleValue
11.472

@<SCITEGIC>MOL_PROPERTY
-TS
SciTegic.value.DoubleValue
28.184

@<SCITEGIC>MOL_PROPERTY
U+W
SciTegic.value.DoubleValue
-7.307

@<SCITEGIC>MOL_PROPERTY
U
SciTegic.value.DoubleValue
48.641

@<SCITEGIC>MOL_PROPERTY
W
SciTegic.value.DoubleValue
-55.948

@<SCITEGIC>MOL_PROPERTY
W(PB)
SciTegic.value.DoubleValue
-58.032

@<SCITEGIC>MOL_PROPERTY
W(SA)
SciTegic.value.DoubleValue
2.084

@<SCITEGIC>MOL_PROPERTY
Valence
SciTegic.value.DoubleValue
2.922

@<SCITEGIC>MOL_PROPERTY
Coulomb
SciTegic.value.DoubleValue
45.269

@<SCITEGIC>MOL_PROPERTY
VdW
SciTegic.value.DoubleValue
0.450

@<SCITEGIC>MOL_PROPERTY
VdW6
SciTegic.value.DoubleValue
-7.045

@<SCITEGIC>MOL_PROPERTY
VdW12
SciTegic.value.DoubleValue
7.495

@<SCITEGIC>MOL_PROPERTY
Bond
SciTegic.value.DoubleValue
0.220

@<SCITEGIC>MOL_PROPERTY
Angle
SciTegic.value.DoubleValue
1.205

@<SCITEGIC>MOL_PROPERTY
Pdih
SciTegic.value.DoubleValue
1.497

@<SCITEGIC>MOL_PROPERTY
Idih
SciTegic.value.DoubleValue
0.000

@<SCITEGIC>MOL_PROPERTY
Tether
SciTegic.value.DoubleValue
0.000

@<TRIPOS>MOLECULE
guest-2_vm2.mol2 : vm2 ligand conformer 39
          23          22           1
SMALL
USER_CHARGES
 
@<TRIPOS>ATOM
       1    N1      20.535593   18.701851   25.651648 N.4        1 MOL1        -0.5940
       2    H1      21.307607   18.104828   25.338249 H          1 MOL1         0.3649
       3    H2      19.898226   18.110497   26.194647 H          1 MOL1         0.3649
       4    H3      20.933676   19.386923   26.302928 H          1 MOL1         0.3649
       5    C1      19.831688   19.372853   24.489791 C.3        1 MOL1         0.0207
       6    H4      20.559598   20.006900   23.976895 H          1 MOL1         0.0950
       7    H5      19.043536   20.012583   24.895886 H          1 MOL1         0.0950
       8    C2      19.222262   18.370258   23.492182 C.3        1 MOL1        -0.1415
       9    H6      20.010560   17.718949   23.093665 H          1 MOL1         0.0976
      10    H7      18.520952   17.714523   24.025009 H          1 MOL1         0.0976
      11    C3      18.471444   19.065549   22.329466 C.3        1 MOL1        -0.1375
      12    H8      17.612982   19.614977   22.739934 H          1 MOL1         0.0976
      13    H9      18.043627   18.299332   21.669288 H          1 MOL1         0.0976
      14    C4      19.333838   20.048781   21.492633 C.3        1 MOL1        -0.1375
      15    H10     18.709298   20.468605   20.692091 H          1 MOL1         0.0976
      16    H11     19.623902   20.903350   22.118633 H          1 MOL1         0.0976
      17    C5      20.608955   19.434254   20.861243 C.3        1 MOL1        -0.1350
      18    H12     21.299541   19.101211   21.647557 H          1 MOL1         0.0976
      19    H13     21.140199   20.221573   20.308432 H          1 MOL1         0.0976
      20    C6      20.312220   18.263454   19.897037 C.3        1 MOL1        -0.2365
      21    H14     21.235591   17.920614   19.412590 H          1 MOL1         0.0987
      22    H15     19.612858   18.569709   19.108342 H          1 MOL1         0.0987
      23    H16     19.878873   17.406002   20.426702 H          1 MOL1         0.0987
@<TRIPOS>BOND
    1     1     2    1
    2     1     3    1
    3     1     4    1
    4     1     5    1
    5     5     6    1
    6     5     7    1
    7     5     8    1
    8     8     9    1
    9     8    10    1
   10     8    11    1
   11    11    12    1
   12    11    13    1
   13    11    14    1
   14    14    15    1
   15    14    16    1
   16    14    17    1
   17    17    18    1
   18    17    19    1
   19    17    20    1
   20    20    21    1
   21    20    22    1
   22    20    23    1
@<TRIPOS>SUBSTRUCTURE
       1 MOL1            1 RESIDUE      1      MOL     
@<SCITEGIC>MOL_PROPERTY
VM2 Rank
SciTegic.value.IntegerValue
39

@<SCITEGIC>MOL_PROPERTY
Conf_Id
SciTegic.value.IntegerValue
258

@<SCITEGIC>MOL_PROPERTY
Probability
SciTegic.value.DoubleValue
0.59

@<SCITEGIC>MOL_PROPERTY
Sum Probability
SciTegic.value.DoubleValue
98.17

@<SCITEGIC>MOL_PROPERTY
Delta G
SciTegic.value.DoubleValue
1.794

@<SCITEGIC>MOL_PROPERTY
G
SciTegic.value.DoubleValue
39.710

@<SCITEGIC>MOL_PROPERTY
E
SciTegic.value.DoubleValue
11.527

@<SCITEGIC>MOL_PROPERTY
-TS
SciTegic.value.DoubleValue
28.183

@<SCITEGIC>MOL_PROPERTY
U+W
SciTegic.value.DoubleValue
-7.252

@<SCITEGIC>MOL_PROPERTY
U
SciTegic.value.DoubleValue
48.641

@<SCITEGIC>MOL_PROPERTY
W
SciTegic.value.DoubleValue
-55.893

@<SCITEGIC>MOL_PROPERTY
W(PB)
SciTegic.value.DoubleValue
-57.963

@<SCITEGIC>MOL_PROPERTY
W(SA)
SciTegic.value.DoubleValue
2.070

@<SCITEGIC>MOL_PROPERTY
Valence
SciTegic.value.DoubleValue
2.922

@<SCITEGIC>MOL_PROPERTY
Coulomb
SciTegic.value.DoubleValue
45.269

@<SCITEGIC>MOL_PROPERTY
VdW
SciTegic.value.DoubleValue
0.450

@<SCITEGIC>MOL_PROPERTY
VdW6
SciTegic.value.DoubleValue
-7.045

@<SCITEGIC>MOL_PROPERTY
VdW12
SciTegic.value.DoubleValue
7.494

@<SCITEGIC>MOL_PROPERTY
Bond
SciTegic.value.DoubleValue
0.220

@<SCITEGIC>MOL_PROPERTY
Angle
SciTegic.value.DoubleValue
1.205

@<SCITEGIC>MOL_PROPERTY
Pdih
SciTegic.value.DoubleValue
1.497

@<SCITEGIC>MOL_PROPERTY
Idih
SciTegic.value.DoubleValue
0.000

@<SCITEGIC>MOL_PROPERTY
Tether
SciTegic.value.DoubleValue
0.000

@<TRIPOS>MOLECULE
guest-2_vm2.mol2 : vm2 ligand conformer 40
          23          22           1
SMALL
USER_CHARGES
 
@<TRIPOS>ATOM
       1    N1      19.091692   18.920091   25.429383 N.4        1 MOL1        -0.5940
       2    H1      18.469007   19.461547   26.038338 H          1 MOL1         0.3649
       3    H2      19.748724   18.423160   26.039174 H          1 MOL1         0.3649
       4    H3      18.516486   18.212117   24.963191 H          1 MOL1         0.3649
       5    C1      19.810627   19.803791   24.429193 C.3        1 MOL1         0.0207
       6    H4      20.378686   20.549680   24.991717 H          1 MOL1         0.0950
       7    H5      19.056857   20.327523   23.835558 H          1 MOL1         0.0950
       8    C2      20.763704   19.031384   23.495051 C.3        1 MOL1        -0.1415
       9    H6      21.297881   19.750559   22.861071 H          1 MOL1         0.0976
      10    H7      21.534058   18.533908   24.098941 H          1 MOL1         0.0976
      11    C3      20.054193   17.978308   22.604079 C.3        1 MOL1        -0.1375
      12    H8      19.656236   17.175996   23.239630 H          1 MOL1         0.0976
      13    H9      20.801048   17.494980   21.960329 H          1 MOL1         0.0976
      14    C4      18.901059   18.537786   21.727797 C.3        1 MOL1        -0.1375
      15    H10     18.481285   17.714808   21.133121 H          1 MOL1         0.0976
      16    H11     18.083137   18.880829   22.375338 H          1 MOL1         0.0976
      17    C5      19.300251   19.691230   20.772613 C.3        1 MOL1        -0.1350
      18    H12     19.630055   20.565475   21.349659 H          1 MOL1         0.0976
      19    H13     18.406182   20.014537   20.221444 H          1 MOL1         0.0976
      20    C6      20.394473   19.294410   19.755884 C.3        1 MOL1        -0.2365
      21    H14     20.578860   20.114243   19.049688 H          1 MOL1         0.0987
      22    H15     20.092663   18.412813   19.175691 H          1 MOL1         0.0987
      23    H16     21.344798   19.068455   20.255234 H          1 MOL1         0.0987
@<TRIPOS>BOND
    1     1     2    1
    2     1     3    1
    3     1     4    1
    4     1     5    1
    5     5     6    1
    6     5     7    1
    7     5     8    1
    8     8     9    1
    9     8    10    1
   10     8    11    1
   11    11    12    1
   12    11    13    1
   13    11    14    1
   14    14    15    1
   15    14    16    1
   16    14    17    1
   17    17    18    1
   18    17    19    1
   19    17    20    1
   20    20    21    1
   21    20    22    1
   22    20    23    1
@<TRIPOS>SUBSTRUCTURE
       1 MOL1            1 RESIDUE      1      MOL     
@<SCITEGIC>MOL_PROPERTY
VM2 Rank
SciTegic.value.IntegerValue
40

@<SCITEGIC>MOL_PROPERTY
Conf_Id
SciTegic.value.IntegerValue
737

@<SCITEGIC>MOL_PROPERTY
Probability
SciTegic.value.DoubleValue
0.32

@<SCITEGIC>MOL_PROPERTY
Sum Probability
SciTegic.value.DoubleValue
98.49

@<SCITEGIC>MOL_PROPERTY
Delta G
SciTegic.value.DoubleValue
2.162

@<SCITEGIC>MOL_PROPERTY
G
SciTegic.value.DoubleValue
40.078

@<SCITEGIC>MOL_PROPERTY
E
SciTegic.value.DoubleValue
11.702

@<SCITEGIC>MOL_PROPERTY
-TS
SciTegic.value.DoubleValue
28.376

@<SCITEGIC>MOL_PROPERTY
U+W
SciTegic.value.DoubleValue
-7.077

@<SCITEGIC>MOL_PROPERTY
U
SciTegic.value.DoubleValue
48.991

@<SCITEGIC>MOL_PROPERTY
W
SciTegic.value.DoubleValue
-56.068

@<SCITEGIC>MOL_PROPERTY
W(PB)
SciTegic.value.DoubleValue
-58.109

@<SCITEGIC>MOL_PROPERTY
W(SA)
SciTegic.value.DoubleValue
2.041

@<SCITEGIC>MOL_PROPERTY
Valence
SciTegic.value.DoubleValue
3.025

@<SCITEGIC>MOL_PROPERTY
Coulomb
SciTegic.value.DoubleValue
45.511

@<SCITEGIC>MOL_PROPERTY
VdW
SciTegic.value.DoubleValue
0.456

@<SCITEGIC>MOL_PROPERTY
VdW6
SciTegic.value.DoubleValue
-7.728

@<SCITEGIC>MOL_PROPERTY
VdW12
SciTegic.value.DoubleValue
8.183

@<SCITEGIC>MOL_PROPERTY
Bond
SciTegic.value.DoubleValue
0.246

@<SCITEGIC>MOL_PROPERTY
Angle
SciTegic.value.DoubleValue
1.276

@<SCITEGIC>MOL_PROPERTY
Pdih
SciTegic.value.DoubleValue
1.503

@<SCITEGIC>MOL_PROPERTY
Idih
SciTegic.value.DoubleValue
0.000

@<SCITEGIC>MOL_PROPERTY
Tether
SciTegic.value.DoubleValue
0.000

@<TRIPOS>MOLECULE
guest-2_vm2.mol2 : vm2 ligand conformer 41
          23          22           1
SMALL
USER_CHARGES
 
@<TRIPOS>ATOM
       1    N1      20.091300   19.335811   25.475164 N.4        1 MOL1        -0.5940
       2    H1      19.934824   18.500199   26.047651 H          1 MOL1         0.3649
       3    H2      20.097539   20.138848   26.112997 H          1 MOL1         0.3649
       4    H3      21.032515   19.258998   25.078128 H          1 MOL1         0.3649
       5    C1      19.038604   19.482487   24.394195 C.3        1 MOL1         0.0207
       6    H4      19.242812   20.404911   23.844377 H          1 MOL1         0.0950
       7    H5      18.068093   19.588102   24.886565 H          1 MOL1         0.0950
       8    C2      18.989196   18.293068   23.414179 C.3        1 MOL1        -0.1415
       9    H6      18.754013   17.377088   23.972104 H          1 MOL1         0.0976
      10    H7      18.154214   18.442598   22.717806 H          1 MOL1         0.0976
      11    C3      20.301987   18.081636   22.615382 C.3        1 MOL1        -0.1375
      12    H8      20.170171   17.232565   21.931634 H          1 MOL1         0.0976
      13    H9      21.100180   17.777202   23.305461 H          1 MOL1         0.0976
      14    C4      20.782830   19.321143   21.813497 C.3        1 MOL1        -0.1375
      15    H10     21.063456   20.121545   22.511059 H          1 MOL1         0.0976
      16    H11     21.706443   19.057268   21.280157 H          1 MOL1         0.0976
      17    C5      19.759938   19.882509   20.793336 C.3        1 MOL1        -0.1350
      18    H12     20.201072   20.761474   20.302931 H          1 MOL1         0.0976
      19    H13     18.864530   20.246884   21.314425 H          1 MOL1         0.0976
      20    C6      19.352145   18.860346   19.708248 C.3        1 MOL1        -0.2365
      21    H14     18.696913   19.330594   18.963685 H          1 MOL1         0.0987
      22    H15     18.806624   18.011841   20.139493 H          1 MOL1         0.0987
      23    H16     20.233359   18.471080   19.182070 H          1 MOL1         0.0987
@<TRIPOS>BOND
    1     1     2    1
    2     1     3    1
    3     1     4    1
    4     1     5    1
    5     5     6    1
    6     5     7    1
    7     5     8    1
    8     8     9    1
    9     8    10    1
   10     8    11    1
   11    11    12    1
   12    11    13    1
   13    11    14    1
   14    14    15    1
   15    14    16    1
   16    14    17    1
   17    17    18    1
   18    17    19    1
   19    17    20    1
   20    20    21    1
   21    20    22    1
   22    20    23    1
@<TRIPOS>SUBSTRUCTURE
       1 MOL1            1 RESIDUE      1      MOL     
@<SCITEGIC>MOL_PROPERTY
VM2 Rank
SciTegic.value.IntegerValue
41

@<SCITEGIC>MOL_PROPERTY
Conf_Id
SciTegic.value.IntegerValue
735

@<SCITEGIC>MOL_PROPERTY
Probability
SciTegic.value.DoubleValue
0.31

@<SCITEGIC>MOL_PROPERTY
Sum Probability
SciTegic.value.DoubleValue
98.80

@<SCITEGIC>MOL_PROPERTY
Delta G
SciTegic.value.DoubleValue
2.186

@<SCITEGIC>MOL_PROPERTY
G
SciTegic.value.DoubleValue
40.102

@<SCITEGIC>MOL_PROPERTY
E
SciTegic.value.DoubleValue
11.727

@<SCITEGIC>MOL_PROPERTY
-TS
SciTegic.value.DoubleValue
28.376

@<SCITEGIC>MOL_PROPERTY
U+W
SciTegic.value.DoubleValue
-7.052

@<SCITEGIC>MOL_PROPERTY
U
SciTegic.value.DoubleValue
48.991

@<SCITEGIC>MOL_PROPERTY
W
SciTegic.value.DoubleValue
-56.043

@<SCITEGIC>MOL_PROPERTY
W(PB)
SciTegic.value.DoubleValue
-58.100

@<SCITEGIC>MOL_PROPERTY
W(SA)
SciTegic.value.DoubleValue
2.057

@<SCITEGIC>MOL_PROPERTY
Valence
SciTegic.value.DoubleValue
3.025

@<SCITEGIC>MOL_PROPERTY
Coulomb
SciTegic.value.DoubleValue
45.510

@<SCITEGIC>MOL_PROPERTY
VdW
SciTegic.value.DoubleValue
0.456

@<SCITEGIC>MOL_PROPERTY
VdW6
SciTegic.value.DoubleValue
-7.727

@<SCITEGIC>MOL_PROPERTY
VdW12
SciTegic.value.DoubleValue
8.183

@<SCITEGIC>MOL_PROPERTY
Bond
SciTegic.value.DoubleValue
0.246

@<SCITEGIC>MOL_PROPERTY
Angle
SciTegic.value.DoubleValue
1.276

@<SCITEGIC>MOL_PROPERTY
Pdih
SciTegic.value.DoubleValue
1.503

@<SCITEGIC>MOL_PROPERTY
Idih
SciTegic.value.DoubleValue
0.000

@<SCITEGIC>MOL_PROPERTY
Tether
SciTegic.value.DoubleValue
0.000

@<TRIPOS>MOLECULE
guest-2_vm2.mol2 : vm2 ligand conformer 42
          23          22           1
SMALL
USER_CHARGES
 
@<TRIPOS>ATOM
       1    N1      20.633112   18.014475   24.831745 N.4        1 MOL1        -0.5940
       2    H1      21.459826   17.971011   25.437349 H          1 MOL1         0.3649
       3    H2      20.955142   17.871704   23.870719 H          1 MOL1         0.3649
       4    H3      20.043193   17.212458   25.075739 H          1 MOL1         0.3649
       5    C1      19.889643   19.326862   24.989544 C.3        1 MOL1         0.0207
       6    H4      20.580448   20.146833   24.775645 H          1 MOL1         0.0950
       7    H5      19.592466   19.399813   26.039255 H          1 MOL1         0.0950
       8    C2      18.633476   19.455082   24.102724 C.3        1 MOL1        -0.1415
       9    H6      18.071703   18.511553   24.107416 H          1 MOL1         0.0976
      10    H7      17.973022   20.200769   24.564921 H          1 MOL1         0.0976
      11    C3      18.915865   19.908358   22.647323 C.3        1 MOL1        -0.1375
      12    H8      19.421701   20.883785   22.659854 H          1 MOL1         0.0976
      13    H9      17.951003   20.070732   22.147192 H          1 MOL1         0.0976
      14    C4      19.749304   18.905671   21.814361 C.3        1 MOL1        -0.1375
      15    H10     20.768800   18.846510   22.214912 H          1 MOL1         0.0976
      16    H11     19.306778   17.902831   21.891091 H          1 MOL1         0.0976
      17    C5      19.825686   19.319895   20.327994 C.3        1 MOL1        -0.1350
      18    H12     20.261173   20.325624   20.244952 H          1 MOL1         0.0976
      19    H13     18.812759   19.377331   19.905328 H          1 MOL1         0.0976
      20    C6      20.668913   18.326657   19.500309 C.3        1 MOL1        -0.2365
      21    H14     21.699057   18.273889   19.876082 H          1 MOL1         0.0987
      22    H15     20.710062   18.636440   18.447984 H          1 MOL1         0.0987
      23    H16     20.239079   17.317157   19.537478 H          1 MOL1         0.0987
@<TRIPOS>BOND
    1     1     2    1
    2     1     3    1
    3     1     4    1
    4     1     5    1
    5     5     6    1
    6     5     7    1
    7     5     8    1
    8     8     9    1
    9     8    10    1
   10     8    11    1
   11    11    12    1
   12    11    13    1
   13    11    14    1
   14    14    15    1
   15    14    16    1
   16    14    17    1
   17    17    18    1
   18    17    19    1
   19    17    20    1
   20    20    21    1
   21    20    22    1
   22    20    23    1
@<TRIPOS>SUBSTRUCTURE
       1 MOL1            1 RESIDUE      1      MOL     
@<SCITEGIC>MOL_PROPERTY
VM2 Rank
SciTegic.value.IntegerValue
42

@<SCITEGIC>MOL_PROPERTY
Conf_Id
SciTegic.value.IntegerValue
641

@<SCITEGIC>MOL_PROPERTY
Probability
SciTegic.value.DoubleValue
0.11

@<SCITEGIC>MOL_PROPERTY
Sum Probability
SciTegic.value.DoubleValue
98.90

@<SCITEGIC>MOL_PROPERTY
Delta G
SciTegic.value.DoubleValue
2.811

@<SCITEGIC>MOL_PROPERTY
G
SciTegic.value.DoubleValue
40.728

@<SCITEGIC>MOL_PROPERTY
E
SciTegic.value.DoubleValue
13.062

@<SCITEGIC>MOL_PROPERTY
-TS
SciTegic.value.DoubleValue
27.665

@<SCITEGIC>MOL_PROPERTY
U+W
SciTegic.value.DoubleValue
-5.717

@<SCITEGIC>MOL_PROPERTY
U
SciTegic.value.DoubleValue
50.170

@<SCITEGIC>MOL_PROPERTY
W
SciTegic.value.DoubleValue
-55.887

@<SCITEGIC>MOL_PROPERTY
W(PB)
SciTegic.value.DoubleValue
-57.991

@<SCITEGIC>MOL_PROPERTY
W(SA)
SciTegic.value.DoubleValue
2.104

@<SCITEGIC>MOL_PROPERTY
Valence
SciTegic.value.DoubleValue
3.335

@<SCITEGIC>MOL_PROPERTY
Coulomb
SciTegic.value.DoubleValue
46.425

@<SCITEGIC>MOL_PROPERTY
VdW
SciTegic.value.DoubleValue
0.410

@<SCITEGIC>MOL_PROPERTY
VdW6
SciTegic.value.DoubleValue
-6.121

@<SCITEGIC>MOL_PROPERTY
VdW12
SciTegic.value.DoubleValue
6.531

@<SCITEGIC>MOL_PROPERTY
Bond
SciTegic.value.DoubleValue
0.172

@<SCITEGIC>MOL_PROPERTY
Angle
SciTegic.value.DoubleValue
0.958

@<SCITEGIC>MOL_PROPERTY
Pdih
SciTegic.value.DoubleValue
2.205

@<SCITEGIC>MOL_PROPERTY
Idih
SciTegic.value.DoubleValue
0.000

@<SCITEGIC>MOL_PROPERTY
Tether
SciTegic.value.DoubleValue
0.000

@<TRIPOS>MOLECULE
guest-2_vm2.mol2 : vm2 ligand conformer 43
          23          22           1
SMALL
USER_CHARGES
 
@<TRIPOS>ATOM
       1    N1      19.696775   17.625049   24.789169 N.4        1 MOL1        -0.5940
       2    H1      19.646362   17.327319   23.811177 H          1 MOL1         0.3649
       3    H2      19.100157   16.989630   25.329901 H          1 MOL1         0.3649
       4    H3      20.659728   17.468912   25.103991 H          1 MOL1         0.3649
       5    C1      19.277427   19.072250   24.961673 C.3        1 MOL1         0.0207
       6    H4      19.352993   19.300277   26.028360 H          1 MOL1         0.0950
       7    H5      18.228586   19.168657   24.668492 H          1 MOL1         0.0950
       8    C2      20.137316   20.080540   24.171240 C.3        1 MOL1        -0.1415
       9    H6      20.037274   21.059314   24.658958 H          1 MOL1         0.0976
      10    H7      21.199266   19.812337   24.249905 H          1 MOL1         0.0976
      11    C3      19.731030   20.247379   22.684468 C.3        1 MOL1        -0.1375
      12    H8      20.332135   21.061190   22.255707 H          1 MOL1         0.0976
      13    H9      18.684392   20.576996   22.626282 H          1 MOL1         0.0976
      14    C4      19.920481   18.976832   21.822119 C.3        1 MOL1        -0.1375
      15    H10     20.935194   18.580217   21.965156 H          1 MOL1         0.0976
      16    H11     19.215733   18.200335   22.144134 H          1 MOL1         0.0976
      17    C5      19.688727   19.262963   20.321744 C.3        1 MOL1        -0.1350
      18    H12     20.391773   20.034329   19.977233 H          1 MOL1         0.0976
      19    H13     18.677385   19.666769   20.172872 H          1 MOL1         0.0976
      20    C6      19.864244   17.991988   19.463587 C.3        1 MOL1        -0.2365
      21    H14     20.877846   17.583007   19.566421 H          1 MOL1         0.0987
      22    H15     19.697524   18.215355   18.401815 H          1 MOL1         0.0987
      23    H16     19.149447   17.213240   19.759901 H          1 MOL1         0.0987
@<TRIPOS>BOND
    1     1     2    1
    2     1     3    1
    3     1     4    1
    4     1     5    1
    5     5     6    1
    6     5     7    1
    7     5     8    1
    8     8     9    1
    9     8    10    1
   10     8    11    1
   11    11    12    1
   12    11    13    1
   13    11    14    1
   14    14    15    1
   15    14    16    1
   16    14    17    1
   17    17    18    1
   18    17    19    1
   19    17    20    1
   20    20    21    1
   21    20    22    1
   22    20    23    1
@<TRIPOS>SUBSTRUCTURE
       1 MOL1            1 RESIDUE      1      MOL     
@<SCITEGIC>MOL_PROPERTY
VM2 Rank
SciTegic.value.IntegerValue
43

@<SCITEGIC>MOL_PROPERTY
Conf_Id
SciTegic.value.IntegerValue
895

@<SCITEGIC>MOL_PROPERTY
Probability
SciTegic.value.DoubleValue
0.11

@<SCITEGIC>MOL_PROPERTY
Sum Probability
SciTegic.value.DoubleValue
99.01

@<SCITEGIC>MOL_PROPERTY
Delta G
SciTegic.value.DoubleValue
2.817

@<SCITEGIC>MOL_PROPERTY
G
SciTegic.value.DoubleValue
40.733

@<SCITEGIC>MOL_PROPERTY
E
SciTegic.value.DoubleValue
13.068

@<SCITEGIC>MOL_PROPERTY
-TS
SciTegic.value.DoubleValue
27.665

@<SCITEGIC>MOL_PROPERTY
U+W
SciTegic.value.DoubleValue
-5.711

@<SCITEGIC>MOL_PROPERTY
U
SciTegic.value.DoubleValue
50.170

@<SCITEGIC>MOL_PROPERTY
W
SciTegic.value.DoubleValue
-55.881

@<SCITEGIC>MOL_PROPERTY
W(PB)
SciTegic.value.DoubleValue
-57.975

@<SCITEGIC>MOL_PROPERTY
W(SA)
SciTegic.value.DoubleValue
2.095

@<SCITEGIC>MOL_PROPERTY
Valence
SciTegic.value.DoubleValue
3.335

@<SCITEGIC>MOL_PROPERTY
Coulomb
SciTegic.value.DoubleValue
46.425

@<SCITEGIC>MOL_PROPERTY
VdW
SciTegic.value.DoubleValue
0.410

@<SCITEGIC>MOL_PROPERTY
VdW6
SciTegic.value.DoubleValue
-6.121

@<SCITEGIC>MOL_PROPERTY
VdW12
SciTegic.value.DoubleValue
6.530

@<SCITEGIC>MOL_PROPERTY
Bond
SciTegic.value.DoubleValue
0.172

@<SCITEGIC>MOL_PROPERTY
Angle
SciTegic.value.DoubleValue
0.958

@<SCITEGIC>MOL_PROPERTY
Pdih
SciTegic.value.DoubleValue
2.206

@<SCITEGIC>MOL_PROPERTY
Idih
SciTegic.value.DoubleValue
0.000

@<SCITEGIC>MOL_PROPERTY
Tether
SciTegic.value.DoubleValue
0.000

@<TRIPOS>MOLECULE
guest-2_vm2.mol2 : vm2 ligand conformer 44
          23          22           1
SMALL
USER_CHARGES
 
@<TRIPOS>ATOM
       1    N1      20.693181   18.841390   25.643357 N.4        1 MOL1        -0.5940
       2    H1      20.120343   19.302143   26.357765 H          1 MOL1         0.3649
       3    H2      21.666895   19.107355   25.825363 H          1 MOL1         0.3649
       4    H3      20.624517   17.831777   25.807031 H          1 MOL1         0.3649
       5    C1      20.259073   19.217728   24.241310 C.3        1 MOL1         0.0207
       6    H4      20.928926   18.714755   23.539710 H          1 MOL1         0.0950
       7    H5      20.382999   20.298035   24.127491 H          1 MOL1         0.0950
       8    C2      18.802294   18.827089   23.935692 C.3        1 MOL1        -0.1415
       9    H6      18.694599   17.736584   24.007018 H          1 MOL1         0.0976
      10    H7      18.151025   19.254288   24.709843 H          1 MOL1         0.0976
      11    C3      18.301419   19.307890   22.550253 C.3        1 MOL1        -0.1375
      12    H8      18.333774   20.404827   22.495086 H          1 MOL1         0.0976
      13    H9      17.239068   19.038159   22.471600 H          1 MOL1         0.0976
      14    C4      19.046221   18.686436   21.339671 C.3        1 MOL1        -0.1375
      15    H10     19.344491   17.654232   21.569537 H          1 MOL1         0.0976
      16    H11     18.339961   18.617473   20.500613 H          1 MOL1         0.0976
      17    C5      20.270231   19.508701   20.867951 C.3        1 MOL1        -0.1350
      18    H12     21.011572   19.600697   21.670125 H          1 MOL1         0.0976
      19    H13     19.953071   20.530248   20.615698 H          1 MOL1         0.0976
      20    C6      20.943581   18.867767   19.635765 C.3        1 MOL1        -0.2365
      21    H14     20.243451   18.800575   18.792835 H          1 MOL1         0.0987
      22    H15     21.301995   17.855511   19.864018 H          1 MOL1         0.0987
      23    H16     21.805444   19.464803   19.310517 H          1 MOL1         0.0987
@<TRIPOS>BOND
    1     1     2    1
    2     1     3    1
    3     1     4    1
    4     1     5    1
    5     5     6    1
    6     5     7    1
    7     5     8    1
    8     8     9    1
    9     8    10    1
   10     8    11    1
   11    11    12    1
   12    11    13    1
   13    11    14    1
   14    14    15    1
   15    14    16    1
   16    14    17    1
   17    17    18    1
   18    17    19    1
   19    17    20    1
   20    20    21    1
   21    20    22    1
   22    20    23    1
@<TRIPOS>SUBSTRUCTURE
       1 MOL1            1 RESIDUE      1      MOL     
@<SCITEGIC>MOL_PROPERTY
VM2 Rank
SciTegic.value.IntegerValue
44

@<SCITEGIC>MOL_PROPERTY
Conf_Id
SciTegic.value.IntegerValue
157

@<SCITEGIC>MOL_PROPERTY
Probability
SciTegic.value.DoubleValue
0.10

@<SCITEGIC>MOL_PROPERTY
Sum Probability
SciTegic.value.DoubleValue
99.11

@<SCITEGIC>MOL_PROPERTY
Delta G
SciTegic.value.DoubleValue
2.836

@<SCITEGIC>MOL_PROPERTY
G
SciTegic.value.DoubleValue
40.752

@<SCITEGIC>MOL_PROPERTY
E
SciTegic.value.DoubleValue
13.106

@<SCITEGIC>MOL_PROPERTY
-TS
SciTegic.value.DoubleValue
27.646

@<SCITEGIC>MOL_PROPERTY
U+W
SciTegic.value.DoubleValue
-5.673

@<SCITEGIC>MOL_PROPERTY
U
SciTegic.value.DoubleValue
50.133

@<SCITEGIC>MOL_PROPERTY
W
SciTegic.value.DoubleValue
-55.806

@<SCITEGIC>MOL_PROPERTY
W(PB)
SciTegic.value.DoubleValue
-57.922

@<SCITEGIC>MOL_PROPERTY
W(SA)
SciTegic.value.DoubleValue
2.116

@<SCITEGIC>MOL_PROPERTY
Valence
SciTegic.value.DoubleValue
4.276

@<SCITEGIC>MOL_PROPERTY
Coulomb
SciTegic.value.DoubleValue
45.339

@<SCITEGIC>MOL_PROPERTY
VdW
SciTegic.value.DoubleValue
0.519

@<SCITEGIC>MOL_PROPERTY
VdW6
SciTegic.value.DoubleValue
-6.084

@<SCITEGIC>MOL_PROPERTY
VdW12
SciTegic.value.DoubleValue
6.602

@<SCITEGIC>MOL_PROPERTY
Bond
SciTegic.value.DoubleValue
0.193

@<SCITEGIC>MOL_PROPERTY
Angle
SciTegic.value.DoubleValue
1.128

@<SCITEGIC>MOL_PROPERTY
Pdih
SciTegic.value.DoubleValue
2.955

@<SCITEGIC>MOL_PROPERTY
Idih
SciTegic.value.DoubleValue
0.000

@<SCITEGIC>MOL_PROPERTY
Tether
SciTegic.value.DoubleValue
0.000

@<TRIPOS>MOLECULE
guest-2_vm2.mol2 : vm2 ligand conformer 45
          23          22           1
SMALL
USER_CHARGES
 
@<TRIPOS>ATOM
       1    N1      19.006412   18.139560   25.566376 N.4        1 MOL1        -0.5940
       2    H1      19.756781   17.470704   25.767376 H          1 MOL1         0.3649
       3    H2      18.120554   17.631826   25.663552 H          1 MOL1         0.3649
       4    H3      19.026765   18.847083   26.307870 H          1 MOL1         0.3649
       5    C1      19.153436   18.757742   24.190857 C.3        1 MOL1         0.0207
       6    H4      18.310347   19.435717   24.032965 H          1 MOL1         0.0950
       7    H5      19.093888   17.951326   23.455957 H          1 MOL1         0.0950
       8    C2      20.476202   19.523582   24.012008 C.3        1 MOL1        -0.1415
       9    H6      20.570689   20.261131   24.820125 H          1 MOL1         0.0976
      10    H7      21.318422   18.828316   24.126724 H          1 MOL1         0.0976
      11    C3      20.594862   20.262032   22.654768 C.3        1 MOL1        -0.1375
      12    H8      21.537629   20.826443   22.667481 H          1 MOL1         0.0976
      13    H9      19.799786   21.014747   22.561835 H          1 MOL1         0.0976
      14    C4      20.605964   19.335267   21.410811 C.3        1 MOL1        -0.1375
      15    H10     21.215774   19.813574   20.631752 H          1 MOL1         0.0976
      16    H11     21.109407   18.388427   21.650161 H          1 MOL1         0.0976
      17    C5      19.201227   19.064139   20.819165 C.3        1 MOL1        -0.1350
      18    H12     18.720414   20.017550   20.559149 H          1 MOL1         0.0976
      19    H13     18.553287   18.578619   21.558067 H          1 MOL1         0.0976
      20    C6      19.277896   18.174677   19.560015 C.3        1 MOL1        -0.2365
      21    H14     19.882539   18.649819   18.776514 H          1 MOL1         0.0987
      22    H15     18.275462   17.996323   19.149694 H          1 MOL1         0.0987
      23    H16     19.724998   17.199376   19.792629 H          1 MOL1         0.0987
@<TRIPOS>BOND
    1     1     2    1
    2     1     3    1
    3     1     4    1
    4     1     5    1
    5     5     6    1
    6     5     7    1
    7     5     8    1
    8     8     9    1
    9     8    10    1
   10     8    11    1
   11    11    12    1
   12    11    13    1
   13    11    14    1
   14    14    15    1
   15    14    16    1
   16    14    17    1
   17    17    18    1
   18    17    19    1
   19    17    20    1
   20    20    21    1
   21    20    22    1
   22    20    23    1
@<TRIPOS>SUBSTRUCTURE
       1 MOL1            1 RESIDUE      1      MOL     
@<SCITEGIC>MOL_PROPERTY
VM2 Rank
SciTegic.value.IntegerValue
45

@<SCITEGIC>MOL_PROPERTY
Conf_Id
SciTegic.value.IntegerValue
150

@<SCITEGIC>MOL_PROPERTY
Probability
SciTegic.value.DoubleValue
0.09

@<SCITEGIC>MOL_PROPERTY
Sum Probability
SciTegic.value.DoubleValue
99.21

@<SCITEGIC>MOL_PROPERTY
Delta G
SciTegic.value.DoubleValue
2.884

@<SCITEGIC>MOL_PROPERTY
G
SciTegic.value.DoubleValue
40.800

@<SCITEGIC>MOL_PROPERTY
E
SciTegic.value.DoubleValue
13.154

@<SCITEGIC>MOL_PROPERTY
-TS
SciTegic.value.DoubleValue
27.646

@<SCITEGIC>MOL_PROPERTY
U+W
SciTegic.value.DoubleValue
-5.625

@<SCITEGIC>MOL_PROPERTY
U
SciTegic.value.DoubleValue
50.133

@<SCITEGIC>MOL_PROPERTY
W
SciTegic.value.DoubleValue
-55.759

@<SCITEGIC>MOL_PROPERTY
W(PB)
SciTegic.value.DoubleValue
-57.887

@<SCITEGIC>MOL_PROPERTY
W(SA)
SciTegic.value.DoubleValue
2.128

@<SCITEGIC>MOL_PROPERTY
Valence
SciTegic.value.DoubleValue
4.276

@<SCITEGIC>MOL_PROPERTY
Coulomb
SciTegic.value.DoubleValue
45.339

@<SCITEGIC>MOL_PROPERTY
VdW
SciTegic.value.DoubleValue
0.519

@<SCITEGIC>MOL_PROPERTY
VdW6
SciTegic.value.DoubleValue
-6.084

@<SCITEGIC>MOL_PROPERTY
VdW12
SciTegic.value.DoubleValue
6.603

@<SCITEGIC>MOL_PROPERTY
Bond
SciTegic.value.DoubleValue
0.193

@<SCITEGIC>MOL_PROPERTY
Angle
SciTegic.value.DoubleValue
1.127

@<SCITEGIC>MOL_PROPERTY
Pdih
SciTegic.value.DoubleValue
2.955

@<SCITEGIC>MOL_PROPERTY
Idih
SciTegic.value.DoubleValue
0.000

@<SCITEGIC>MOL_PROPERTY
Tether
SciTegic.value.DoubleValue
0.000

@<TRIPOS>MOLECULE
guest-2_vm2.mol2 : vm2 ligand conformer 46
          23          22           1
SMALL
USER_CHARGES
 
@<TRIPOS>ATOM
       1    N1      20.062697   17.854595   24.996670 N.4        1 MOL1        -0.5940
       2    H1      20.795183   17.477213   25.607495 H          1 MOL1         0.3649
       3    H2      20.160668   17.393848   24.088016 H          1 MOL1         0.3649
       4    H3      19.164221   17.558580   25.391431 H          1 MOL1         0.3649
       5    C1      20.153578   19.363531   24.876884 C.3        1 MOL1         0.0207
       6    H4      21.148365   19.623885   24.505498 H          1 MOL1         0.0950
       7    H5      20.052476   19.769710   25.886992 H          1 MOL1         0.0950
       8    C2      19.075028   19.995334   23.972215 C.3        1 MOL1        -0.1415
       9    H6      18.097134   19.539919   24.177486 H          1 MOL1         0.0976
      10    H7      18.979971   21.052242   24.254641 H          1 MOL1         0.0976
      11    C3      19.392064   19.935697   22.455917 C.3        1 MOL1        -0.1375
      12    H8      20.348804   20.441486   22.268920 H          1 MOL1         0.0976
      13    H9      18.627196   20.517499   21.923278 H          1 MOL1         0.0976
      14    C4      19.431434   18.503287   21.867233 C.3        1 MOL1        -0.1375
      15    H10     20.310130   17.966552   22.245832 H          1 MOL1         0.0976
      16    H11     18.545789   17.947883   22.205491 H          1 MOL1         0.0976
      17    C5      19.464307   18.479927   20.319982 C.3        1 MOL1        -0.1350
      18    H12     18.573472   18.985120   19.921219 H          1 MOL1         0.0976
      19    H13     19.402954   17.436436   19.980558 H          1 MOL1         0.0976
      20    C6      20.736891   19.124630   19.725098 C.3        1 MOL1        -0.2365
      21    H14     21.643206   18.651411   20.124663 H          1 MOL1         0.0987
      22    H15     20.784335   20.198554   19.944461 H          1 MOL1         0.0987
      23    H16     20.751687   19.009672   18.633545 H          1 MOL1         0.0987
@<TRIPOS>BOND
    1     1     2    1
    2     1     3    1
    3     1     4    1
    4     1     5    1
    5     5     6    1
    6     5     7    1
    7     5     8    1
    8     8     9    1
    9     8    10    1
   10     8    11    1
   11    11    12    1
   12    11    13    1
   13    11    14    1
   14    14    15    1
   15    14    16    1
   16    14    17    1
   17    17    18    1
   18    17    19    1
   19    17    20    1
   20    20    21    1
   21    20    22    1
   22    20    23    1
@<TRIPOS>SUBSTRUCTURE
       1 MOL1            1 RESIDUE      1      MOL     
@<SCITEGIC>MOL_PROPERTY
VM2 Rank
SciTegic.value.IntegerValue
46

@<SCITEGIC>MOL_PROPERTY
Conf_Id
SciTegic.value.IntegerValue
748

@<SCITEGIC>MOL_PROPERTY
Probability
SciTegic.value.DoubleValue
0.05

@<SCITEGIC>MOL_PROPERTY
Sum Probability
SciTegic.value.DoubleValue
99.26

@<SCITEGIC>MOL_PROPERTY
Delta G
SciTegic.value.DoubleValue
3.293

@<SCITEGIC>MOL_PROPERTY
G
SciTegic.value.DoubleValue
41.209

@<SCITEGIC>MOL_PROPERTY
E
SciTegic.value.DoubleValue
13.408

@<SCITEGIC>MOL_PROPERTY
-TS
SciTegic.value.DoubleValue
27.801

@<SCITEGIC>MOL_PROPERTY
U+W
SciTegic.value.DoubleValue
-5.371

@<SCITEGIC>MOL_PROPERTY
U
SciTegic.value.DoubleValue
50.658

@<SCITEGIC>MOL_PROPERTY
W
SciTegic.value.DoubleValue
-56.029

@<SCITEGIC>MOL_PROPERTY
W(PB)
SciTegic.value.DoubleValue
-58.111

@<SCITEGIC>MOL_PROPERTY
W(SA)
SciTegic.value.DoubleValue
2.082

@<SCITEGIC>MOL_PROPERTY
Valence
SciTegic.value.DoubleValue
3.781

@<SCITEGIC>MOL_PROPERTY
Coulomb
SciTegic.value.DoubleValue
46.354

@<SCITEGIC>MOL_PROPERTY
VdW
SciTegic.value.DoubleValue
0.523

@<SCITEGIC>MOL_PROPERTY
VdW6
SciTegic.value.DoubleValue
-6.754

@<SCITEGIC>MOL_PROPERTY
VdW12
SciTegic.value.DoubleValue
7.276

@<SCITEGIC>MOL_PROPERTY
Bond
SciTegic.value.DoubleValue
0.207

@<SCITEGIC>MOL_PROPERTY
Angle
SciTegic.value.DoubleValue
1.136

@<SCITEGIC>MOL_PROPERTY
Pdih
SciTegic.value.DoubleValue
2.438

@<SCITEGIC>MOL_PROPERTY
Idih
SciTegic.value.DoubleValue
0.000

@<SCITEGIC>MOL_PROPERTY
Tether
SciTegic.value.DoubleValue
0.000

@<TRIPOS>MOLECULE
guest-2_vm2.mol2 : vm2 ligand conformer 47
          23          22           1
SMALL
USER_CHARGES
 
@<TRIPOS>ATOM
       1    N1      20.368475   18.357317   25.866567 N.4        1 MOL1        -0.5940
       2    H1      21.212321   17.868442   25.550821 H          1 MOL1         0.3649
       3    H2      19.660428   17.642114   26.061498 H          1 MOL1         0.3649
       4    H3      20.598544   18.800525   26.762498 H          1 MOL1         0.3649
       5    C1      19.885091   19.368279   24.846620 C.3        1 MOL1         0.0207
       6    H4      20.673620   20.113273   24.709934 H          1 MOL1         0.0950
       7    H5      19.005916   19.870247   25.259604 H          1 MOL1         0.0950
       8    C2      19.530243   18.735143   23.489587 C.3        1 MOL1        -0.1415
       9    H6      20.409229   18.213419   23.094805 H          1 MOL1         0.0976
      10    H7      18.750251   17.976308   23.636694 H          1 MOL1         0.0976
      11    C3      19.031329   19.800772   22.484211 C.3        1 MOL1        -0.1375
      12    H8      19.778162   20.598594   22.369445 H          1 MOL1         0.0976
      13    H9      18.138834   20.279981   22.910309 H          1 MOL1         0.0976
      14    C4      18.659005   19.216156   21.096473 C.3        1 MOL1        -0.1375
      15    H10     18.307703   18.180316   21.200285 H          1 MOL1         0.0976
      16    H11     17.801062   19.781287   20.706541 H          1 MOL1         0.0976
      17    C5      19.787049   19.292462   20.035885 C.3        1 MOL1        -0.1350
      18    H12     20.059735   20.342923   19.862828 H          1 MOL1         0.0976
      19    H13     19.392117   18.919939   19.080333 H          1 MOL1         0.0976
      20    C6      21.054808   18.486870   20.394658 C.3        1 MOL1        -0.2365
      21    H14     21.753986   18.475737   19.548538 H          1 MOL1         0.0987
      22    H15     20.807187   17.445843   20.639193 H          1 MOL1         0.0987
      23    H16     21.581516   18.931797   21.247744 H          1 MOL1         0.0987
@<TRIPOS>BOND
    1     1     2    1
    2     1     3    1
    3     1     4    1
    4     1     5    1
    5     5     6    1
    6     5     7    1
    7     5     8    1
    8     8     9    1
    9     8    10    1
   10     8    11    1
   11    11    12    1
   12    11    13    1
   13    11    14    1
   14    14    15    1
   15    14    16    1
   16    14    17    1
   17    17    18    1
   18    17    19    1
   19    17    20    1
   20    20    21    1
   21    20    22    1
   22    20    23    1
@<TRIPOS>SUBSTRUCTURE
       1 MOL1            1 RESIDUE      1      MOL     
@<SCITEGIC>MOL_PROPERTY
VM2 Rank
SciTegic.value.IntegerValue
47

@<SCITEGIC>MOL_PROPERTY
Conf_Id
SciTegic.value.IntegerValue
464

@<SCITEGIC>MOL_PROPERTY
Probability
SciTegic.value.DoubleValue
0.05

@<SCITEGIC>MOL_PROPERTY
Sum Probability
SciTegic.value.DoubleValue
99.30

@<SCITEGIC>MOL_PROPERTY
Delta G
SciTegic.value.DoubleValue
3.294

@<SCITEGIC>MOL_PROPERTY
G
SciTegic.value.DoubleValue
41.210

@<SCITEGIC>MOL_PROPERTY
E
SciTegic.value.DoubleValue
13.349

@<SCITEGIC>MOL_PROPERTY
-TS
SciTegic.value.DoubleValue
27.861

@<SCITEGIC>MOL_PROPERTY
U+W
SciTegic.value.DoubleValue
-5.430

@<SCITEGIC>MOL_PROPERTY
U
SciTegic.value.DoubleValue
50.253

@<SCITEGIC>MOL_PROPERTY
W
SciTegic.value.DoubleValue
-55.683

@<SCITEGIC>MOL_PROPERTY
W(PB)
SciTegic.value.DoubleValue
-57.780

@<SCITEGIC>MOL_PROPERTY
W(SA)
SciTegic.value.DoubleValue
2.097

@<SCITEGIC>MOL_PROPERTY
Valence
SciTegic.value.DoubleValue
4.702

@<SCITEGIC>MOL_PROPERTY
Coulomb
SciTegic.value.DoubleValue
44.992

@<SCITEGIC>MOL_PROPERTY
VdW
SciTegic.value.DoubleValue
0.559

@<SCITEGIC>MOL_PROPERTY
VdW6
SciTegic.value.DoubleValue
-6.152

@<SCITEGIC>MOL_PROPERTY
VdW12
SciTegic.value.DoubleValue
6.711

@<SCITEGIC>MOL_PROPERTY
Bond
SciTegic.value.DoubleValue
0.198

@<SCITEGIC>MOL_PROPERTY
Angle
SciTegic.value.DoubleValue
1.163

@<SCITEGIC>MOL_PROPERTY
Pdih
SciTegic.value.DoubleValue
3.341

@<SCITEGIC>MOL_PROPERTY
Idih
SciTegic.value.DoubleValue
0.000

@<SCITEGIC>MOL_PROPERTY
Tether
SciTegic.value.DoubleValue
0.000

@<TRIPOS>MOLECULE
guest-2_vm2.mol2 : vm2 ligand conformer 48
          23          22           1
SMALL
USER_CHARGES
 
@<TRIPOS>ATOM
       1    N1      19.559683   18.020829   25.829675 N.4        1 MOL1        -0.5940
       2    H1      20.547955   18.011061   26.101827 H          1 MOL1         0.3649
       3    H2      19.337744   17.088750   25.465335 H          1 MOL1         0.3649
       4    H3      19.015005   18.141772   26.690347 H          1 MOL1         0.3649
       5    C1      19.262473   19.109295   24.818287 C.3        1 MOL1         0.0207
       6    H4      19.492420   20.072483   25.281831 H          1 MOL1         0.0950
       7    H5      18.192093   19.081232   24.596989 H          1 MOL1         0.0950
       8    C2      20.064910   18.957546   23.513915 C.3        1 MOL1        -0.1415
       9    H6      21.138289   18.969491   23.745370 H          1 MOL1         0.0976
      10    H7      19.847690   17.979950   23.069189 H          1 MOL1         0.0976
      11    C3      19.738732   20.095078   22.516472 C.3        1 MOL1        -0.1375
      12    H8      19.993023   21.051228   22.994868 H          1 MOL1         0.0976
      13    H9      18.658540   20.133013   22.318499 H          1 MOL1         0.0976
      14    C4      20.521545   19.991023   21.181333 C.3        1 MOL1        -0.1375
      15    H10     20.753835   21.009719   20.841061 H          1 MOL1         0.0976
      16    H11     21.493495   19.505691   21.345403 H          1 MOL1         0.0976
      17    C5      19.757936   19.280370   20.034582 C.3        1 MOL1        -0.1350
      18    H12     20.372945   19.328079   19.125014 H          1 MOL1         0.0976
      19    H13     18.836159   19.833891   19.807169 H          1 MOL1         0.0976
      20    C6      19.410721   17.802859   20.319736 C.3        1 MOL1        -0.2365
      21    H14     18.659777   17.716240   21.114540 H          1 MOL1         0.0987
      22    H15     20.302657   17.235964   20.616272 H          1 MOL1         0.0987
      23    H16     18.993564   17.327233   19.422711 H          1 MOL1         0.0987
@<TRIPOS>BOND
    1     1     2    1
    2     1     3    1
    3     1     4    1
    4     1     5    1
    5     5     6    1
    6     5     7    1
    7     5     8    1
    8     8     9    1
    9     8    10    1
   10     8    11    1
   11    11    12    1
   12    11    13    1
   13    11    14    1
   14    14    15    1
   15    14    16    1
   16    14    17    1
   17    17    18    1
   18    17    19    1
   19    17    20    1
   20    20    21    1
   21    20    22    1
   22    20    23    1
@<TRIPOS>SUBSTRUCTURE
       1 MOL1            1 RESIDUE      1      MOL     
@<SCITEGIC>MOL_PROPERTY
VM2 Rank
SciTegic.value.IntegerValue
48

@<SCITEGIC>MOL_PROPERTY
Conf_Id
SciTegic.value.IntegerValue
939

@<SCITEGIC>MOL_PROPERTY
Probability
SciTegic.value.DoubleValue
0.04

@<SCITEGIC>MOL_PROPERTY
Sum Probability
SciTegic.value.DoubleValue
99.35

@<SCITEGIC>MOL_PROPERTY
Delta G
SciTegic.value.DoubleValue
3.353

@<SCITEGIC>MOL_PROPERTY
G
SciTegic.value.DoubleValue
41.269

@<SCITEGIC>MOL_PROPERTY
E
SciTegic.value.DoubleValue
13.408

@<SCITEGIC>MOL_PROPERTY
-TS
SciTegic.value.DoubleValue
27.861

@<SCITEGIC>MOL_PROPERTY
U+W
SciTegic.value.DoubleValue
-5.371

@<SCITEGIC>MOL_PROPERTY
U
SciTegic.value.DoubleValue
50.253

@<SCITEGIC>MOL_PROPERTY
W
SciTegic.value.DoubleValue
-55.624

@<SCITEGIC>MOL_PROPERTY
W(PB)
SciTegic.value.DoubleValue
-57.711

@<SCITEGIC>MOL_PROPERTY
W(SA)
SciTegic.value.DoubleValue
2.087

@<SCITEGIC>MOL_PROPERTY
Valence
SciTegic.value.DoubleValue
4.702

@<SCITEGIC>MOL_PROPERTY
Coulomb
SciTegic.value.DoubleValue
44.992

@<SCITEGIC>MOL_PROPERTY
VdW
SciTegic.value.DoubleValue
0.559

@<SCITEGIC>MOL_PROPERTY
VdW6
SciTegic.value.DoubleValue
-6.152

@<SCITEGIC>MOL_PROPERTY
VdW12
SciTegic.value.DoubleValue
6.711

@<SCITEGIC>MOL_PROPERTY
Bond
SciTegic.value.DoubleValue
0.198

@<SCITEGIC>MOL_PROPERTY
Angle
SciTegic.value.DoubleValue
1.163

@<SCITEGIC>MOL_PROPERTY
Pdih
SciTegic.value.DoubleValue
3.340

@<SCITEGIC>MOL_PROPERTY
Idih
SciTegic.value.DoubleValue
0.000

@<SCITEGIC>MOL_PROPERTY
Tether
SciTegic.value.DoubleValue
0.000

@<TRIPOS>MOLECULE
guest-2_vm2.mol2 : vm2 ligand conformer 49
          23          22           1
SMALL
USER_CHARGES
 
@<TRIPOS>ATOM
       1    N1      20.197758   17.910768   25.002854 N.4        1 MOL1        -0.5940
       2    H1      19.903421   17.106249   25.566925 H          1 MOL1         0.3649
       3    H2      21.007421   18.325329   25.475405 H          1 MOL1         0.3649
       4    H3      20.525629   17.545640   24.104679 H          1 MOL1         0.3649
       5    C1      19.074934   18.914811   24.827770 C.3        1 MOL1         0.0207
       6    H4      18.780020   19.240374   25.829046 H          1 MOL1         0.0950
       7    H5      18.221106   18.406156   24.372182 H          1 MOL1         0.0950
       8    C2      19.454845   20.153314   23.989530 C.3        1 MOL1        -0.1415
       9    H6      18.751379   20.957129   24.244236 H          1 MOL1         0.0976
      10    H7      20.447788   20.517762   24.284587 H          1 MOL1         0.0976
      11    C3      19.392093   19.935686   22.455929 C.3        1 MOL1        -0.1375
      12    H8      19.558237   20.904865   21.965717 H          1 MOL1         0.0976
      13    H9      18.376951   19.621042   22.179111 H          1 MOL1         0.0976
      14    C4      20.424382   18.916424   21.912440 C.3        1 MOL1        -0.1375
      15    H10     21.413033   19.140887   22.336050 H          1 MOL1         0.0976
      16    H11     20.158420   17.903400   22.238900 H          1 MOL1         0.0976
      17    C5      20.537767   18.926598   20.368854 C.3        1 MOL1        -0.1350
      18    H12     21.346053   18.244971   20.069015 H          1 MOL1         0.0976
      19    H13     20.836143   19.926625   20.024273 H          1 MOL1         0.0976
      20    C6      19.234222   18.499399   19.656623 C.3        1 MOL1        -0.2365
      21    H14     18.423439   19.216194   19.836949 H          1 MOL1         0.0987
      22    H15     18.902299   17.510913   19.999724 H          1 MOL1         0.0987
      23    H16     19.389841   18.443117   18.571478 H          1 MOL1         0.0987
@<TRIPOS>BOND
    1     1     2    1
    2     1     3    1
    3     1     4    1
    4     1     5    1
    5     5     6    1
    6     5     7    1
    7     5     8    1
    8     8     9    1
    9     8    10    1
   10     8    11    1
   11    11    12    1
   12    11    13    1
   13    11    14    1
   14    14    15    1
   15    14    16    1
   16    14    17    1
   17    17    18    1
   18    17    19    1
   19    17    20    1
   20    20    21    1
   21    20    22    1
   22    20    23    1
@<TRIPOS>SUBSTRUCTURE
       1 MOL1            1 RESIDUE      1      MOL     
@<SCITEGIC>MOL_PROPERTY
VM2 Rank
SciTegic.value.IntegerValue
49

@<SCITEGIC>MOL_PROPERTY
Conf_Id
SciTegic.value.IntegerValue
182

@<SCITEGIC>MOL_PROPERTY
Probability
SciTegic.value.DoubleValue
0.04

@<SCITEGIC>MOL_PROPERTY
Sum Probability
SciTegic.value.DoubleValue
99.39

@<SCITEGIC>MOL_PROPERTY
Delta G
SciTegic.value.DoubleValue
3.367

@<SCITEGIC>MOL_PROPERTY
G
SciTegic.value.DoubleValue
41.283

@<SCITEGIC>MOL_PROPERTY
E
SciTegic.value.DoubleValue
13.482

@<SCITEGIC>MOL_PROPERTY
-TS
SciTegic.value.DoubleValue
27.801

@<SCITEGIC>MOL_PROPERTY
U+W
SciTegic.value.DoubleValue
-5.297

@<SCITEGIC>MOL_PROPERTY
U
SciTegic.value.DoubleValue
50.658

@<SCITEGIC>MOL_PROPERTY
W
SciTegic.value.DoubleValue
-55.955

@<SCITEGIC>MOL_PROPERTY
W(PB)
SciTegic.value.DoubleValue
-58.037

@<SCITEGIC>MOL_PROPERTY
W(SA)
SciTegic.value.DoubleValue
2.082

@<SCITEGIC>MOL_PROPERTY
Valence
SciTegic.value.DoubleValue
3.782

@<SCITEGIC>MOL_PROPERTY
Coulomb
SciTegic.value.DoubleValue
46.354

@<SCITEGIC>MOL_PROPERTY
VdW
SciTegic.value.DoubleValue
0.522

@<SCITEGIC>MOL_PROPERTY
VdW6
SciTegic.value.DoubleValue
-6.753

@<SCITEGIC>MOL_PROPERTY
VdW12
SciTegic.value.DoubleValue
7.276

@<SCITEGIC>MOL_PROPERTY
Bond
SciTegic.value.DoubleValue
0.207

@<SCITEGIC>MOL_PROPERTY
Angle
SciTegic.value.DoubleValue
1.137

@<SCITEGIC>MOL_PROPERTY
Pdih
SciTegic.value.DoubleValue
2.439

@<SCITEGIC>MOL_PROPERTY
Idih
SciTegic.value.DoubleValue
0.000

@<SCITEGIC>MOL_PROPERTY
Tether
SciTegic.value.DoubleValue
0.000

@<TRIPOS>MOLECULE
guest-2_vm2.mol2 : vm2 ligand conformer 50
          23          22           1
SMALL
USER_CHARGES
 
@<TRIPOS>ATOM
       1    N1      18.807096   18.304917   25.131549 N.4        1 MOL1        -0.5940
       2    H1      19.036424   17.463337   24.594581 H          1 MOL1         0.3649
       3    H2      17.829041   18.215270   25.426910 H          1 MOL1         0.3649
       4    H3      19.378481   18.286298   25.982312 H          1 MOL1         0.3649
       5    C1      19.038247   19.568294   24.325509 C.3        1 MOL1         0.0207
       6    H4      18.736415   20.414622   24.948540 H          1 MOL1         0.0950
       7    H5      18.378418   19.538001   23.456932 H          1 MOL1         0.0950
       8    C2      20.503858   19.763347   23.882165 C.3        1 MOL1        -0.1415
       9    H6      20.619852   20.758779   23.433420 H          1 MOL1         0.0976
      10    H7      21.134067   19.764392   24.781466 H          1 MOL1         0.0976
      11    C3      21.032000   18.683506   22.899841 C.3        1 MOL1        -0.1375
      12    H8      20.668908   17.688103   23.186411 H          1 MOL1         0.0976
      13    H9      22.124764   18.637598   23.005498 H          1 MOL1         0.0976
      14    C4      20.722887   18.949458   21.403480 C.3        1 MOL1        -0.1375
      15    H10     21.183294   19.898841   21.096983 H          1 MOL1         0.0976
      16    H11     21.216074   18.167205   20.809946 H          1 MOL1         0.0976
      17    C5      19.218213   18.971179   21.048989 C.3        1 MOL1        -0.1350
      18    H12     18.741195   19.851303   21.498748 H          1 MOL1         0.0976
      19    H13     18.722613   18.082612   21.464160 H          1 MOL1         0.0976
      20    C6      18.993698   19.016299   19.522468 C.3        1 MOL1        -0.2365
      21    H14     19.457417   19.908478   19.081749 H          1 MOL1         0.0987
      22    H15     17.921402   19.043752   19.289121 H          1 MOL1         0.0987
      23    H16     19.421604   18.131474   19.033404 H          1 MOL1         0.0987
@<TRIPOS>BOND
    1     1     2    1
    2     1     3    1
    3     1     4    1
    4     1     5    1
    5     5     6    1
    6     5     7    1
    7     5     8    1
    8     8     9    1
    9     8    10    1
   10     8    11    1
   11    11    12    1
   12    11    13    1
   13    11    14    1
   14    14    15    1
   15    14    16    1
   16    14    17    1
   17    17    18    1
   18    17    19    1
   19    17    20    1
   20    20    21    1
   21    20    22    1
   22    20    23    1
@<TRIPOS>SUBSTRUCTURE
       1 MOL1            1 RESIDUE      1      MOL     
@<SCITEGIC>MOL_PROPERTY
VM2 Rank
SciTegic.value.IntegerValue
50

@<SCITEGIC>MOL_PROPERTY
Conf_Id
SciTegic.value.IntegerValue
559

@<SCITEGIC>MOL_PROPERTY
Probability
SciTegic.value.DoubleValue
0.04

@<SCITEGIC>MOL_PROPERTY
Sum Probability
SciTegic.value.DoubleValue
99.43

@<SCITEGIC>MOL_PROPERTY
Delta G
SciTegic.value.DoubleValue
3.396

@<SCITEGIC>MOL_PROPERTY
G
SciTegic.value.DoubleValue
41.312

@<SCITEGIC>MOL_PROPERTY
E
SciTegic.value.DoubleValue
13.413

@<SCITEGIC>MOL_PROPERTY
-TS
SciTegic.value.DoubleValue
27.899

@<SCITEGIC>MOL_PROPERTY
U+W
SciTegic.value.DoubleValue
-5.366

@<SCITEGIC>MOL_PROPERTY
U
SciTegic.value.DoubleValue
50.742

@<SCITEGIC>MOL_PROPERTY
W
SciTegic.value.DoubleValue
-56.109

@<SCITEGIC>MOL_PROPERTY
W(PB)
SciTegic.value.DoubleValue
-58.189

@<SCITEGIC>MOL_PROPERTY
W(SA)
SciTegic.value.DoubleValue
2.080

@<SCITEGIC>MOL_PROPERTY
Valence
SciTegic.value.DoubleValue
4.299

@<SCITEGIC>MOL_PROPERTY
Coulomb
SciTegic.value.DoubleValue
45.940

@<SCITEGIC>MOL_PROPERTY
VdW
SciTegic.value.DoubleValue
0.503

@<SCITEGIC>MOL_PROPERTY
VdW6
SciTegic.value.DoubleValue
-6.823

@<SCITEGIC>MOL_PROPERTY
VdW12
SciTegic.value.DoubleValue
7.326

@<SCITEGIC>MOL_PROPERTY
Bond
SciTegic.value.DoubleValue
0.216

@<SCITEGIC>MOL_PROPERTY
Angle
SciTegic.value.DoubleValue
1.353

@<SCITEGIC>MOL_PROPERTY
Pdih
SciTegic.value.DoubleValue
2.730

@<SCITEGIC>MOL_PROPERTY
Idih
SciTegic.value.DoubleValue
0.000

@<SCITEGIC>MOL_PROPERTY
Tether
SciTegic.value.DoubleValue
0.000

@<TRIPOS>MOLECULE
guest-2_vm2.mol2 : vm2 ligand conformer 51
          23          22           1
SMALL
USER_CHARGES
 
@<TRIPOS>ATOM
       1    N1      19.592450   17.921941   25.738514 N.4        1 MOL1        -0.5940
       2    H1      18.905359   17.229450   25.423658 H          1 MOL1         0.3649
       3    H2      19.392677   18.111888   26.726477 H          1 MOL1         0.3649
       4    H3      20.512884   17.472172   25.702105 H          1 MOL1         0.3649
       5    C1      19.546757   19.184916   24.902577 C.3        1 MOL1         0.0207
       6    H4      20.279481   19.886277   25.310835 H          1 MOL1         0.0950
       7    H5      18.551937   19.625515   25.010680 H          1 MOL1         0.0950
       8    C2      19.843208   18.934522   23.413318 C.3        1 MOL1        -0.1415
       9    H6      20.836958   18.478951   23.309972 H          1 MOL1         0.0976
      10    H7      19.109611   18.219169   23.021401 H          1 MOL1         0.0976
      11    C3      19.782625   20.246317   22.598455 C.3        1 MOL1        -0.1375
      12    H8      20.420782   20.997283   23.084785 H          1 MOL1         0.0976
      13    H9      18.760410   20.648336   22.629784 H          1 MOL1         0.0976
      14    C4      20.236637   20.106374   21.122228 C.3        1 MOL1        -0.1375
      15    H10     20.193938   21.106011   20.667925 H          1 MOL1         0.0976
      16    H11     21.292968   19.807292   21.078251 H          1 MOL1         0.0976
      17    C5      19.371891   19.149018   20.261944 C.3        1 MOL1        -0.1350
      18    H12     19.315811   19.551244   19.240647 H          1 MOL1         0.0976
      19    H13     18.338453   19.128150   20.635015 H          1 MOL1         0.0976
      20    C6      19.942431   17.713912   20.176964 C.3        1 MOL1        -0.2365
      21    H14     19.306309   17.085212   19.540570 H          1 MOL1         0.0987
      22    H15     20.004233   17.234727   21.160074 H          1 MOL1         0.0987
      23    H16     20.949284   17.718066   19.739612 H          1 MOL1         0.0987
@<TRIPOS>BOND
    1     1     2    1
    2     1     3    1
    3     1     4    1
    4     1     5    1
    5     5     6    1
    6     5     7    1
    7     5     8    1
    8     8     9    1
    9     8    10    1
   10     8    11    1
   11    11    12    1
   12    11    13    1
   13    11    14    1
   14    14    15    1
   15    14    16    1
   16    14    17    1
   17    17    18    1
   18    17    19    1
   19    17    20    1
   20    20    21    1
   21    20    22    1
   22    20    23    1
@<TRIPOS>SUBSTRUCTURE
       1 MOL1            1 RESIDUE      1      MOL     
@<SCITEGIC>MOL_PROPERTY
VM2 Rank
SciTegic.value.IntegerValue
51

@<SCITEGIC>MOL_PROPERTY
Conf_Id
SciTegic.value.IntegerValue
168

@<SCITEGIC>MOL_PROPERTY
Probability
SciTegic.value.DoubleValue
0.04

@<SCITEGIC>MOL_PROPERTY
Sum Probability
SciTegic.value.DoubleValue
99.47

@<SCITEGIC>MOL_PROPERTY
Delta G
SciTegic.value.DoubleValue
3.401

@<SCITEGIC>MOL_PROPERTY
G
SciTegic.value.DoubleValue
41.318

@<SCITEGIC>MOL_PROPERTY
E
SciTegic.value.DoubleValue
13.465

@<SCITEGIC>MOL_PROPERTY
-TS
SciTegic.value.DoubleValue
27.852

@<SCITEGIC>MOL_PROPERTY
U+W
SciTegic.value.DoubleValue
-5.314

@<SCITEGIC>MOL_PROPERTY
U
SciTegic.value.DoubleValue
50.301

@<SCITEGIC>MOL_PROPERTY
W
SciTegic.value.DoubleValue
-55.615

@<SCITEGIC>MOL_PROPERTY
W(PB)
SciTegic.value.DoubleValue
-57.714

@<SCITEGIC>MOL_PROPERTY
W(SA)
SciTegic.value.DoubleValue
2.099

@<SCITEGIC>MOL_PROPERTY
Valence
SciTegic.value.DoubleValue
4.724

@<SCITEGIC>MOL_PROPERTY
Coulomb
SciTegic.value.DoubleValue
45.004

@<SCITEGIC>MOL_PROPERTY
VdW
SciTegic.value.DoubleValue
0.574

@<SCITEGIC>MOL_PROPERTY
VdW6
SciTegic.value.DoubleValue
-6.145

@<SCITEGIC>MOL_PROPERTY
VdW12
SciTegic.value.DoubleValue
6.719

@<SCITEGIC>MOL_PROPERTY
Bond
SciTegic.value.DoubleValue
0.198

@<SCITEGIC>MOL_PROPERTY
Angle
SciTegic.value.DoubleValue
1.201

@<SCITEGIC>MOL_PROPERTY
Pdih
SciTegic.value.DoubleValue
3.325

@<SCITEGIC>MOL_PROPERTY
Idih
SciTegic.value.DoubleValue
0.000

@<SCITEGIC>MOL_PROPERTY
Tether
SciTegic.value.DoubleValue
0.000

@<TRIPOS>MOLECULE
guest-2_vm2.mol2 : vm2 ligand conformer 52
          23          22           1
SMALL
USER_CHARGES
 
@<TRIPOS>ATOM
       1    N1      20.750690   19.109566   25.219191 N.4        1 MOL1        -0.5940
       2    H1      21.224854   18.369846   24.692725 H          1 MOL1         0.3649
       3    H2      20.296034   18.665170   26.023196 H          1 MOL1         0.3649
       4    H3      21.479712   19.726999   25.592245 H          1 MOL1         0.3649
       5    C1      19.758083   19.866503   24.358363 C.3        1 MOL1         0.0207
       6    H4      20.310902   20.339282   23.544987 H          1 MOL1         0.0950
       7    H5      19.325006   20.658001   24.976032 H          1 MOL1         0.0950
       8    C2      18.622782   18.984291   23.796746 C.3        1 MOL1        -0.1415
       9    H6      18.108799   18.511143   24.644012 H          1 MOL1         0.0976
      10    H7      17.873132   19.621273   23.308901 H          1 MOL1         0.0976
      11    C3      19.089081   17.879080   22.811339 C.3        1 MOL1        -0.1375
      12    H8      18.343627   17.072092   22.833075 H          1 MOL1         0.0976
      13    H9      20.024938   17.421394   23.156998 H          1 MOL1         0.0976
      14    C4      19.235316   18.333842   21.335809 C.3        1 MOL1        -0.1375
      15    H10     19.485827   17.451261   20.731053 H          1 MOL1         0.0976
      16    H11     18.264978   18.691086   20.964241 H          1 MOL1         0.0976
      17    C5      20.307476   19.422188   21.098831 C.3        1 MOL1        -0.1350
      18    H12     21.251182   19.129464   21.579735 H          1 MOL1         0.0976
      19    H13     19.987544   20.367391   21.555643 H          1 MOL1         0.0976
      20    C6      20.552572   19.661530   19.593722 C.3        1 MOL1        -0.2365
      21    H14     21.306685   20.444998   19.443668 H          1 MOL1         0.0987
      22    H15     19.630769   19.980120   19.089709 H          1 MOL1         0.0987
      23    H16     20.913483   18.748916   19.101705 H          1 MOL1         0.0987
@<TRIPOS>BOND
    1     1     2    1
    2     1     3    1
    3     1     4    1
    4     1     5    1
    5     5     6    1
    6     5     7    1
    7     5     8    1
    8     8     9    1
    9     8    10    1
   10     8    11    1
   11    11    12    1
   12    11    13    1
   13    11    14    1
   14    14    15    1
   15    14    16    1
   16    14    17    1
   17    17    18    1
   18    17    19    1
   19    17    20    1
   20    20    21    1
   21    20    22    1
   22    20    23    1
@<TRIPOS>SUBSTRUCTURE
       1 MOL1            1 RESIDUE      1      MOL     
@<SCITEGIC>MOL_PROPERTY
VM2 Rank
SciTegic.value.IntegerValue
52

@<SCITEGIC>MOL_PROPERTY
Conf_Id
SciTegic.value.IntegerValue
739

@<SCITEGIC>MOL_PROPERTY
Probability
SciTegic.value.DoubleValue
0.04

@<SCITEGIC>MOL_PROPERTY
Sum Probability
SciTegic.value.DoubleValue
99.51

@<SCITEGIC>MOL_PROPERTY
Delta G
SciTegic.value.DoubleValue
3.443

@<SCITEGIC>MOL_PROPERTY
G
SciTegic.value.DoubleValue
41.360

@<SCITEGIC>MOL_PROPERTY
E
SciTegic.value.DoubleValue
13.462

@<SCITEGIC>MOL_PROPERTY
-TS
SciTegic.value.DoubleValue
27.898

@<SCITEGIC>MOL_PROPERTY
U+W
SciTegic.value.DoubleValue
-5.318

@<SCITEGIC>MOL_PROPERTY
U
SciTegic.value.DoubleValue
50.743

@<SCITEGIC>MOL_PROPERTY
W
SciTegic.value.DoubleValue
-56.060

@<SCITEGIC>MOL_PROPERTY
W(PB)
SciTegic.value.DoubleValue
-58.131

@<SCITEGIC>MOL_PROPERTY
W(SA)
SciTegic.value.DoubleValue
2.071

@<SCITEGIC>MOL_PROPERTY
Valence
SciTegic.value.DoubleValue
4.299

@<SCITEGIC>MOL_PROPERTY
Coulomb
SciTegic.value.DoubleValue
45.941

@<SCITEGIC>MOL_PROPERTY
VdW
SciTegic.value.DoubleValue
0.503

@<SCITEGIC>MOL_PROPERTY
VdW6
SciTegic.value.DoubleValue
-6.823

@<SCITEGIC>MOL_PROPERTY
VdW12
SciTegic.value.DoubleValue
7.326

@<SCITEGIC>MOL_PROPERTY
Bond
SciTegic.value.DoubleValue
0.216

@<SCITEGIC>MOL_PROPERTY
Angle
SciTegic.value.DoubleValue
1.355

@<SCITEGIC>MOL_PROPERTY
Pdih
SciTegic.value.DoubleValue
2.728

@<SCITEGIC>MOL_PROPERTY
Idih
SciTegic.value.DoubleValue
0.000

@<SCITEGIC>MOL_PROPERTY
Tether
SciTegic.value.DoubleValue
0.000

@<TRIPOS>MOLECULE
guest-2_vm2.mol2 : vm2 ligand conformer 53
          23          22           1
SMALL
USER_CHARGES
 
@<TRIPOS>ATOM
       1    N1      20.422591   18.267233   25.776321 N.4        1 MOL1        -0.5940
       2    H1      20.351654   18.510744   26.770168 H          1 MOL1         0.3649
       3    H2      21.419605   18.275357   25.538260 H          1 MOL1         0.3649
       4    H3      20.097792   17.299437   25.683096 H          1 MOL1         0.3649
       5    C1      19.625336   19.217583   24.906148 C.3        1 MOL1         0.0207
       6    H4      20.003327   20.229249   25.076837 H          1 MOL1         0.0950
       7    H5      18.582774   19.180445   25.233493 H          1 MOL1         0.0950
       8    C2      19.710035   18.879133   23.407230 C.3        1 MOL1        -0.1415
       9    H6      20.761848   18.906469   23.096689 H          1 MOL1         0.0976
      10    H7      19.343002   17.857517   23.241842 H          1 MOL1         0.0976
      11    C3      18.887056   19.873815   22.557644 C.3        1 MOL1        -0.1375
      12    H8      19.317560   20.880129   22.655233 H          1 MOL1         0.0976
      13    H9      17.869695   19.936105   22.968507 H          1 MOL1         0.0976
      14    C4      18.781967   19.501364   21.055912 C.3        1 MOL1        -0.1375
      15    H10     18.255505   18.543992   20.939736 H          1 MOL1         0.0976
      16    H11     18.139571   20.251595   20.574278 H          1 MOL1         0.0976
      17    C5      20.133532   19.465798   20.296697 C.3        1 MOL1        -0.1350
      18    H12     20.844865   20.170588   20.749344 H          1 MOL1         0.0976
      19    H13     19.967444   19.822278   19.270386 H          1 MOL1         0.0976
      20    C6      20.755483   18.052074   20.214048 C.3        1 MOL1        -0.2365
      21    H14     21.696560   18.079342   19.649649 H          1 MOL1         0.0987
      22    H15     20.079669   17.356409   19.699878 H          1 MOL1         0.0987
      23    H16     20.974922   17.638437   21.204348 H          1 MOL1         0.0987
@<TRIPOS>BOND
    1     1     2    1
    2     1     3    1
    3     1     4    1
    4     1     5    1
    5     5     6    1
    6     5     7    1
    7     5     8    1
    8     8     9    1
    9     8    10    1
   10     8    11    1
   11    11    12    1
   12    11    13    1
   13    11    14    1
   14    14    15    1
   15    14    16    1
   16    14    17    1
   17    17    18    1
   18    17    19    1
   19    17    20    1
   20    20    21    1
   21    20    22    1
   22    20    23    1
@<TRIPOS>SUBSTRUCTURE
       1 MOL1            1 RESIDUE      1      MOL     
@<SCITEGIC>MOL_PROPERTY
VM2 Rank
SciTegic.value.IntegerValue
53

@<SCITEGIC>MOL_PROPERTY
Conf_Id
SciTegic.value.IntegerValue
519

@<SCITEGIC>MOL_PROPERTY
Probability
SciTegic.value.DoubleValue
0.04

@<SCITEGIC>MOL_PROPERTY
Sum Probability
SciTegic.value.DoubleValue
99.54

@<SCITEGIC>MOL_PROPERTY
Delta G
SciTegic.value.DoubleValue
3.454

@<SCITEGIC>MOL_PROPERTY
G
SciTegic.value.DoubleValue
41.371

@<SCITEGIC>MOL_PROPERTY
E
SciTegic.value.DoubleValue
13.518

@<SCITEGIC>MOL_PROPERTY
-TS
SciTegic.value.DoubleValue
27.853

@<SCITEGIC>MOL_PROPERTY
U+W
SciTegic.value.DoubleValue
-5.261

@<SCITEGIC>MOL_PROPERTY
U
SciTegic.value.DoubleValue
50.301

@<SCITEGIC>MOL_PROPERTY
W
SciTegic.value.DoubleValue
-55.562

@<SCITEGIC>MOL_PROPERTY
W(PB)
SciTegic.value.DoubleValue
-57.696

@<SCITEGIC>MOL_PROPERTY
W(SA)
SciTegic.value.DoubleValue
2.134

@<SCITEGIC>MOL_PROPERTY
Valence
SciTegic.value.DoubleValue
4.724

@<SCITEGIC>MOL_PROPERTY
Coulomb
SciTegic.value.DoubleValue
45.004

@<SCITEGIC>MOL_PROPERTY
VdW
SciTegic.value.DoubleValue
0.574

@<SCITEGIC>MOL_PROPERTY
VdW6
SciTegic.value.DoubleValue
-6.145

@<SCITEGIC>MOL_PROPERTY
VdW12
SciTegic.value.DoubleValue
6.719

@<SCITEGIC>MOL_PROPERTY
Bond
SciTegic.value.DoubleValue
0.198

@<SCITEGIC>MOL_PROPERTY
Angle
SciTegic.value.DoubleValue
1.201

@<SCITEGIC>MOL_PROPERTY
Pdih
SciTegic.value.DoubleValue
3.325

@<SCITEGIC>MOL_PROPERTY
Idih
SciTegic.value.DoubleValue
0.000

@<SCITEGIC>MOL_PROPERTY
Tether
SciTegic.value.DoubleValue
0.000

@<TRIPOS>MOLECULE
guest-2_vm2.mol2 : vm2 ligand conformer 54
          23          22           1
SMALL
USER_CHARGES
 
@<TRIPOS>ATOM
       1    N1      19.003200   18.059316   25.090332 N.4        1 MOL1        -0.5940
       2    H1      18.582989   17.763565   24.205173 H          1 MOL1         0.3649
       3    H2      18.263212   18.032076   25.800089 H          1 MOL1         0.3649
       4    H3      19.691894   17.346345   25.351350 H          1 MOL1         0.3649
       5    C1      19.631734   19.435709   24.986718 C.3        1 MOL1         0.0207
       6    H4      20.044754   19.671050   25.971378 H          1 MOL1         0.0950
       7    H5      18.845590   20.163018   24.766917 H          1 MOL1         0.0950
       8    C2      20.754598   19.542709   23.933811 C.3        1 MOL1        -0.1415
       9    H6      21.404946   20.378598   24.224009 H          1 MOL1         0.0976
      10    H7      21.386784   18.645358   23.964700 H          1 MOL1         0.0976
      11    C3      20.261576   19.806405   22.487714 C.3        1 MOL1        -0.1375
      12    H8      21.146128   19.976690   21.861097 H          1 MOL1         0.0976
      13    H9      19.684458   20.741045   22.463481 H          1 MOL1         0.0976
      14    C4      19.412808   18.660443   21.881676 C.3        1 MOL1        -0.1375
      15    H10     19.952147   17.707336   21.970645 H          1 MOL1         0.0976
      16    H11     18.484158   18.556267   22.455550 H          1 MOL1         0.0976
      17    C5      19.024448   18.897289   20.401769 C.3        1 MOL1        -0.1350
      18    H12     18.501588   19.858893   20.302889 H          1 MOL1         0.0976
      19    H13     18.303901   18.124173   20.100104 H          1 MOL1         0.0976
      20    C6      20.227636   18.855129   19.431980 C.3        1 MOL1        -0.2365
      21    H14     19.884174   18.925768   18.391794 H          1 MOL1         0.0987
      22    H15     20.786897   17.916396   19.536882 H          1 MOL1         0.0987
      23    H16     20.918672   19.688758   19.606425 H          1 MOL1         0.0987
@<TRIPOS>BOND
    1     1     2    1
    2     1     3    1
    3     1     4    1
    4     1     5    1
    5     5     6    1
    6     5     7    1
    7     5     8    1
    8     8     9    1
    9     8    10    1
   10     8    11    1
   11    11    12    1
   12    11    13    1
   13    11    14    1
   14    14    15    1
   15    14    16    1
   16    14    17    1
   17    17    18    1
   18    17    19    1
   19    17    20    1
   20    20    21    1
   21    20    22    1
   22    20    23    1
@<TRIPOS>SUBSTRUCTURE
       1 MOL1            1 RESIDUE      1      MOL     
@<SCITEGIC>MOL_PROPERTY
VM2 Rank
SciTegic.value.IntegerValue
54

@<SCITEGIC>MOL_PROPERTY
Conf_Id
SciTegic.value.IntegerValue
362

@<SCITEGIC>MOL_PROPERTY
Probability
SciTegic.value.DoubleValue
0.03

@<SCITEGIC>MOL_PROPERTY
Sum Probability
SciTegic.value.DoubleValue
99.58

@<SCITEGIC>MOL_PROPERTY
Delta G
SciTegic.value.DoubleValue
3.521

@<SCITEGIC>MOL_PROPERTY
G
SciTegic.value.DoubleValue
41.437

@<SCITEGIC>MOL_PROPERTY
E
SciTegic.value.DoubleValue
13.750

@<SCITEGIC>MOL_PROPERTY
-TS
SciTegic.value.DoubleValue
27.686

@<SCITEGIC>MOL_PROPERTY
U+W
SciTegic.value.DoubleValue
-5.029

@<SCITEGIC>MOL_PROPERTY
U
SciTegic.value.DoubleValue
50.916

@<SCITEGIC>MOL_PROPERTY
W
SciTegic.value.DoubleValue
-55.945

@<SCITEGIC>MOL_PROPERTY
W(PB)
SciTegic.value.DoubleValue
-58.029

@<SCITEGIC>MOL_PROPERTY
W(SA)
SciTegic.value.DoubleValue
2.084

@<SCITEGIC>MOL_PROPERTY
Valence
SciTegic.value.DoubleValue
3.987

@<SCITEGIC>MOL_PROPERTY
Coulomb
SciTegic.value.DoubleValue
46.335

@<SCITEGIC>MOL_PROPERTY
VdW
SciTegic.value.DoubleValue
0.594

@<SCITEGIC>MOL_PROPERTY
VdW6
SciTegic.value.DoubleValue
-6.627

@<SCITEGIC>MOL_PROPERTY
VdW12
SciTegic.value.DoubleValue
7.221

@<SCITEGIC>MOL_PROPERTY
Bond
SciTegic.value.DoubleValue
0.215

@<SCITEGIC>MOL_PROPERTY
Angle
SciTegic.value.DoubleValue
1.275

@<SCITEGIC>MOL_PROPERTY
Pdih
SciTegic.value.DoubleValue
2.498

@<SCITEGIC>MOL_PROPERTY
Idih
SciTegic.value.DoubleValue
0.000

@<SCITEGIC>MOL_PROPERTY
Tether
SciTegic.value.DoubleValue
0.000

@<TRIPOS>MOLECULE
guest-2_vm2.mol2 : vm2 ligand conformer 55
          23          22           1
SMALL
USER_CHARGES
 
@<TRIPOS>ATOM
       1    N1      20.789240   18.802133   25.171703 N.4        1 MOL1        -0.5940
       2    H1      20.790098   17.803192   25.401642 H          1 MOL1         0.3649
       3    H2      21.273062   19.283993   25.937083 H          1 MOL1         0.3649
       4    H3      21.362246   18.919184   24.331751 H          1 MOL1         0.3649
       5    C1      19.381727   19.331800   24.975209 C.3        1 MOL1         0.0207
       6    H4      19.435927   20.408529   24.793460 H          1 MOL1         0.0950
       7    H5      18.848792   19.173968   25.916799 H          1 MOL1         0.0950
       8    C2      18.599292   18.646216   23.835626 C.3        1 MOL1        -0.1415
       9    H6      18.788382   17.564560   23.846436 H          1 MOL1         0.0976
      10    H7      17.528494   18.766209   24.047453 H          1 MOL1         0.0976
      11    C3      18.870782   19.227774   22.424283 C.3        1 MOL1        -0.1375
      12    H8      18.615838   20.296470   22.414557 H          1 MOL1         0.0976
      13    H9      18.178045   18.741613   21.725826 H          1 MOL1         0.0976
      14    C4      20.324979   19.040017   21.923308 C.3        1 MOL1        -0.1375
      15    H10     21.005937   19.605674   22.570541 H          1 MOL1         0.0976
      16    H11     20.614468   17.982959   22.001006 H          1 MOL1         0.0976
      17    C5      20.544722   19.529715   20.471084 C.3        1 MOL1        -0.1350
      18    H12     21.621276   19.504168   20.251359 H          1 MOL1         0.0976
      19    H13     20.238595   20.581471   20.382002 H          1 MOL1         0.0976
      20    C6      19.805257   18.679345   19.412788 C.3        1 MOL1        -0.2365
      21    H14     18.716449   18.772688   19.505998 H          1 MOL1         0.0987
      22    H15     20.069065   17.617737   19.504383 H          1 MOL1         0.0987
      23    H16     20.077154   19.005768   18.400630 H          1 MOL1         0.0987
@<TRIPOS>BOND
    1     1     2    1
    2     1     3    1
    3     1     4    1
    4     1     5    1
    5     5     6    1
    6     5     7    1
    7     5     8    1
    8     8     9    1
    9     8    10    1
   10     8    11    1
   11    11    12    1
   12    11    13    1
   13    11    14    1
   14    14    15    1
   15    14    16    1
   16    14    17    1
   17    17    18    1
   18    17    19    1
   19    17    20    1
   20    20    21    1
   21    20    22    1
   22    20    23    1
@<TRIPOS>SUBSTRUCTURE
       1 MOL1            1 RESIDUE      1      MOL     
@<SCITEGIC>MOL_PROPERTY
VM2 Rank
SciTegic.value.IntegerValue
55

@<SCITEGIC>MOL_PROPERTY
Conf_Id
SciTegic.value.IntegerValue
171

@<SCITEGIC>MOL_PROPERTY
Probability
SciTegic.value.DoubleValue
0.03

@<SCITEGIC>MOL_PROPERTY
Sum Probability
SciTegic.value.DoubleValue
99.61

@<SCITEGIC>MOL_PROPERTY
Delta G
SciTegic.value.DoubleValue
3.521

@<SCITEGIC>MOL_PROPERTY
G
SciTegic.value.DoubleValue
41.438

@<SCITEGIC>MOL_PROPERTY
E
SciTegic.value.DoubleValue
13.751

@<SCITEGIC>MOL_PROPERTY
-TS
SciTegic.value.DoubleValue
27.687

@<SCITEGIC>MOL_PROPERTY
U+W
SciTegic.value.DoubleValue
-5.029

@<SCITEGIC>MOL_PROPERTY
U
SciTegic.value.DoubleValue
50.916

@<SCITEGIC>MOL_PROPERTY
W
SciTegic.value.DoubleValue
-55.945

@<SCITEGIC>MOL_PROPERTY
W(PB)
SciTegic.value.DoubleValue
-58.003

@<SCITEGIC>MOL_PROPERTY
W(SA)
SciTegic.value.DoubleValue
2.058

@<SCITEGIC>MOL_PROPERTY
Valence
SciTegic.value.DoubleValue
3.987

@<SCITEGIC>MOL_PROPERTY
Coulomb
SciTegic.value.DoubleValue
46.335

@<SCITEGIC>MOL_PROPERTY
VdW
SciTegic.value.DoubleValue
0.594

@<SCITEGIC>MOL_PROPERTY
VdW6
SciTegic.value.DoubleValue
-6.628

@<SCITEGIC>MOL_PROPERTY
VdW12
SciTegic.value.DoubleValue
7.222

@<SCITEGIC>MOL_PROPERTY
Bond
SciTegic.value.DoubleValue
0.215

@<SCITEGIC>MOL_PROPERTY
Angle
SciTegic.value.DoubleValue
1.274

@<SCITEGIC>MOL_PROPERTY
Pdih
SciTegic.value.DoubleValue
2.498

@<SCITEGIC>MOL_PROPERTY
Idih
SciTegic.value.DoubleValue
0.000

@<SCITEGIC>MOL_PROPERTY
Tether
SciTegic.value.DoubleValue
0.000

@<TRIPOS>MOLECULE
guest-2_vm2.mol2 : vm2 ligand conformer 56
          23          22           1
SMALL
USER_CHARGES
 
@<TRIPOS>ATOM
       1    N1      20.200705   18.033603   25.416814 N.4        1 MOL1        -0.5940
       2    H1      21.024733   17.458358   25.621767 H          1 MOL1         0.3649
       3    H2      19.388203   17.409027   25.438341 H          1 MOL1         0.3649
       4    H3      20.095721   18.691443   26.195917 H          1 MOL1         0.3649
       5    C1      20.329273   18.748450   24.087137 C.3        1 MOL1         0.0207
       6    H4      20.472858   17.991294   23.314292 H          1 MOL1         0.0950
       7    H5      21.227184   19.371023   24.125575 H          1 MOL1         0.0950
       8    C2      19.107522   19.626292   23.754221 C.3        1 MOL1        -0.1415
       9    H6      18.192292   19.019617   23.752118 H          1 MOL1         0.0976
      10    H7      18.988681   20.363026   24.559867 H          1 MOL1         0.0976
      11    C3      19.245223   20.385823   22.410161 C.3        1 MOL1        -0.1375
      12    H8      20.274335   20.746450   22.280066 H          1 MOL1         0.0976
      13    H9      18.625456   21.291123   22.470787 H          1 MOL1         0.0976
      14    C4      18.779540   19.592041   21.159246 C.3        1 MOL1        -0.1375
      15    H10     17.719943   19.327953   21.280434 H          1 MOL1         0.0976
      16    H11     18.820116   20.261138   20.288659 H          1 MOL1         0.0976
      17    C5      19.576737   18.306222   20.827492 C.3        1 MOL1        -0.1350
      18    H12     19.135838   17.846751   19.931809 H          1 MOL1         0.0976
      19    H13     19.454731   17.565469   21.627709 H          1 MOL1         0.0976
      20    C6      21.076999   18.564568   20.558930 C.3        1 MOL1        -0.2365
      21    H14     21.211006   19.293940   19.749611 H          1 MOL1         0.0987
      22    H15     21.579474   17.635776   20.259420 H          1 MOL1         0.0987
      23    H16     21.590139   18.945897   21.449732 H          1 MOL1         0.0987
@<TRIPOS>BOND
    1     1     2    1
    2     1     3    1
    3     1     4    1
    4     1     5    1
    5     5     6    1
    6     5     7    1
    7     5     8    1
    8     8     9    1
    9     8    10    1
   10     8    11    1
   11    11    12    1
   12    11    13    1
   13    11    14    1
   14    14    15    1
   15    14    16    1
   16    14    17    1
   17    17    18    1
   18    17    19    1
   19    17    20    1
   20    20    21    1
   21    20    22    1
   22    20    23    1
@<TRIPOS>SUBSTRUCTURE
       1 MOL1            1 RESIDUE      1      MOL     
@<SCITEGIC>MOL_PROPERTY
VM2 Rank
SciTegic.value.IntegerValue
56

@<SCITEGIC>MOL_PROPERTY
Conf_Id
SciTegic.value.IntegerValue
688

@<SCITEGIC>MOL_PROPERTY
Probability
SciTegic.value.DoubleValue
0.03

@<SCITEGIC>MOL_PROPERTY
Sum Probability
SciTegic.value.DoubleValue
99.64

@<SCITEGIC>MOL_PROPERTY
Delta G
SciTegic.value.DoubleValue
3.567

@<SCITEGIC>MOL_PROPERTY
G
SciTegic.value.DoubleValue
41.483

@<SCITEGIC>MOL_PROPERTY
E
SciTegic.value.DoubleValue
13.154

@<SCITEGIC>MOL_PROPERTY
-TS
SciTegic.value.DoubleValue
28.330

@<SCITEGIC>MOL_PROPERTY
U+W
SciTegic.value.DoubleValue
-5.626

@<SCITEGIC>MOL_PROPERTY
U
SciTegic.value.DoubleValue
50.461

@<SCITEGIC>MOL_PROPERTY
W
SciTegic.value.DoubleValue
-56.086

@<SCITEGIC>MOL_PROPERTY
W(PB)
SciTegic.value.DoubleValue
-58.153

@<SCITEGIC>MOL_PROPERTY
W(SA)
SciTegic.value.DoubleValue
2.066

@<SCITEGIC>MOL_PROPERTY
Valence
SciTegic.value.DoubleValue
4.630

@<SCITEGIC>MOL_PROPERTY
Coulomb
SciTegic.value.DoubleValue
45.564

@<SCITEGIC>MOL_PROPERTY
VdW
SciTegic.value.DoubleValue
0.266

@<SCITEGIC>MOL_PROPERTY
VdW6
SciTegic.value.DoubleValue
-7.363

@<SCITEGIC>MOL_PROPERTY
VdW12
SciTegic.value.DoubleValue
7.629

@<SCITEGIC>MOL_PROPERTY
Bond
SciTegic.value.DoubleValue
0.225

@<SCITEGIC>MOL_PROPERTY
Angle
SciTegic.value.DoubleValue
1.702

@<SCITEGIC>MOL_PROPERTY
Pdih
SciTegic.value.DoubleValue
2.703

@<SCITEGIC>MOL_PROPERTY
Idih
SciTegic.value.DoubleValue
0.000

@<SCITEGIC>MOL_PROPERTY
Tether
SciTegic.value.DoubleValue
0.000

@<TRIPOS>MOLECULE
guest-2_vm2.mol2 : vm2 ligand conformer 57
          23          22           1
SMALL
USER_CHARGES
 
@<TRIPOS>ATOM
       1    N1      19.941570   17.925830   25.405015 N.4        1 MOL1        -0.5940
       2    H1      20.952408   18.059855   25.509712 H          1 MOL1         0.3649
       3    H2      19.754611   16.929970   25.563892 H          1 MOL1         0.3649
       4    H3      19.488979   18.439084   26.168237 H          1 MOL1         0.3649
       5    C1      19.448403   18.381953   24.046962 C.3        1 MOL1         0.0207
       6    H4      18.374387   18.184083   23.995455 H          1 MOL1         0.0950
       7    H5      19.943748   17.771132   23.290177 H          1 MOL1         0.0950
       8    C2      19.710157   19.877021   23.781703 C.3        1 MOL1        -0.1415
       9    H6      19.209356   20.454838   24.569922 H          1 MOL1         0.0976
      10    H7      20.782250   20.097205   23.870248 H          1 MOL1         0.0976
      11    C3      19.180036   20.358689   22.407182 C.3        1 MOL1        -0.1375
      12    H8      18.969370   21.434185   22.486445 H          1 MOL1         0.0976
      13    H9      18.212459   19.888644   22.186053 H          1 MOL1         0.0976
      14    C4      20.166003   20.168799   21.222469 C.3        1 MOL1        -0.1375
      15    H10     19.731384   20.640244   20.330222 H          1 MOL1         0.0976
      16    H11     21.087351   20.728750   21.434009 H          1 MOL1         0.0976
      17    C5      20.542504   18.707987   20.871483 C.3        1 MOL1        -0.1350
      18    H12     21.090569   18.245941   21.702197 H          1 MOL1         0.0976
      19    H13     21.246733   18.724935   20.027964 H          1 MOL1         0.0976
      20    C6      19.327328   17.836720   20.479186 C.3        1 MOL1        -0.2365
      21    H14     18.779560   18.282566   19.638882 H          1 MOL1         0.0987
      22    H15     18.628132   17.713590   21.314779 H          1 MOL1         0.0987
      23    H16     19.655444   16.835429   20.171619 H          1 MOL1         0.0987
@<TRIPOS>BOND
    1     1     2    1
    2     1     3    1
    3     1     4    1
    4     1     5    1
    5     5     6    1
    6     5     7    1
    7     5     8    1
    8     8     9    1
    9     8    10    1
   10     8    11    1
   11    11    12    1
   12    11    13    1
   13    11    14    1
   14    14    15    1
   15    14    16    1
   16    14    17    1
   17    17    18    1
   18    17    19    1
   19    17    20    1
   20    20    21    1
   21    20    22    1
   22    20    23    1
@<TRIPOS>SUBSTRUCTURE
       1 MOL1            1 RESIDUE      1      MOL     
@<SCITEGIC>MOL_PROPERTY
VM2 Rank
SciTegic.value.IntegerValue
57

@<SCITEGIC>MOL_PROPERTY
Conf_Id
SciTegic.value.IntegerValue
133

@<SCITEGIC>MOL_PROPERTY
Probability
SciTegic.value.DoubleValue
0.03

@<SCITEGIC>MOL_PROPERTY
Sum Probability
SciTegic.value.DoubleValue
99.67

@<SCITEGIC>MOL_PROPERTY
Delta G
SciTegic.value.DoubleValue
3.585

@<SCITEGIC>MOL_PROPERTY
G
SciTegic.value.DoubleValue
41.501

@<SCITEGIC>MOL_PROPERTY
E
SciTegic.value.DoubleValue
13.171

@<SCITEGIC>MOL_PROPERTY
-TS
SciTegic.value.DoubleValue
28.330

@<SCITEGIC>MOL_PROPERTY
U+W
SciTegic.value.DoubleValue
-5.608

@<SCITEGIC>MOL_PROPERTY
U
SciTegic.value.DoubleValue
50.461

@<SCITEGIC>MOL_PROPERTY
W
SciTegic.value.DoubleValue
-56.068

@<SCITEGIC>MOL_PROPERTY
W(PB)
SciTegic.value.DoubleValue
-58.143

@<SCITEGIC>MOL_PROPERTY
W(SA)
SciTegic.value.DoubleValue
2.075

@<SCITEGIC>MOL_PROPERTY
Valence
SciTegic.value.DoubleValue
4.630

@<SCITEGIC>MOL_PROPERTY
Coulomb
SciTegic.value.DoubleValue
45.564

@<SCITEGIC>MOL_PROPERTY
VdW
SciTegic.value.DoubleValue
0.266

@<SCITEGIC>MOL_PROPERTY
VdW6
SciTegic.value.DoubleValue
-7.363

@<SCITEGIC>MOL_PROPERTY
VdW12
SciTegic.value.DoubleValue
7.629

@<SCITEGIC>MOL_PROPERTY
Bond
SciTegic.value.DoubleValue
0.225

@<SCITEGIC>MOL_PROPERTY
Angle
SciTegic.value.DoubleValue
1.702

@<SCITEGIC>MOL_PROPERTY
Pdih
SciTegic.value.DoubleValue
2.703

@<SCITEGIC>MOL_PROPERTY
Idih
SciTegic.value.DoubleValue
0.000

@<SCITEGIC>MOL_PROPERTY
Tether
SciTegic.value.DoubleValue
0.000

@<TRIPOS>MOLECULE
guest-2_vm2.mol2 : vm2 ligand conformer 58
          23          22           1
SMALL
USER_CHARGES
 
@<TRIPOS>ATOM
       1    N1      18.934917   18.570765   25.505973 N.4        1 MOL1        -0.5940
       2    H1      18.314215   19.343599   25.247068 H          1 MOL1         0.3649
       3    H2      18.966572   18.542234   26.530723 H          1 MOL1         0.3649
       4    H3      18.484718   17.703483   25.196632 H          1 MOL1         0.3649
       5    C1      20.317238   18.734242   24.904658 C.3        1 MOL1         0.0207
       6    H4      20.931765   17.899514   25.252723 H          1 MOL1         0.0950
       7    H5      20.748918   19.660350   25.293734 H          1 MOL1         0.0950
       8    C2      20.323512   18.766432   23.364074 C.3        1 MOL1        -0.1415
       9    H6      21.365904   18.798845   23.020535 H          1 MOL1         0.0976
      10    H7      19.889803   17.832149   22.986472 H          1 MOL1         0.0976
      11    C3      19.554379   19.981432   22.791627 C.3        1 MOL1        -0.1375
      12    H8      19.898691   20.892255   23.300984 H          1 MOL1         0.0976
      13    H9      18.484980   19.886141   23.022816 H          1 MOL1         0.0976
      14    C4      19.727340   20.185187   21.264145 C.3        1 MOL1        -0.1375
      15    H10     19.185032   21.100822   20.990299 H          1 MOL1         0.0976
      16    H11     20.781227   20.384097   21.025517 H          1 MOL1         0.0976
      17    C5      19.187803   19.025910   20.386947 C.3        1 MOL1        -0.1350
      18    H12     18.777320   19.451136   19.460315 H          1 MOL1         0.0976
      19    H13     18.346841   18.526797   20.888202 H          1 MOL1         0.0976
      20    C6      20.270811   17.993031   19.996575 C.3        1 MOL1        -0.2365
      21    H14     20.706522   17.499923   20.872246 H          1 MOL1         0.0987
      22    H15     21.085607   18.471775   19.438052 H          1 MOL1         0.0987
      23    H16     19.842387   17.212018   19.355187 H          1 MOL1         0.0987
@<TRIPOS>BOND
    1     1     2    1
    2     1     3    1
    3     1     4    1
    4     1     5    1
    5     5     6    1
    6     5     7    1
    7     5     8    1
    8     8     9    1
    9     8    10    1
   10     8    11    1
   11    11    12    1
   12    11    13    1
   13    11    14    1
   14    14    15    1
   15    14    16    1
   16    14    17    1
   17    17    18    1
   18    17    19    1
   19    17    20    1
   20    20    21    1
   21    20    22    1
   22    20    23    1
@<TRIPOS>SUBSTRUCTURE
       1 MOL1            1 RESIDUE      1      MOL     
@<SCITEGIC>MOL_PROPERTY
VM2 Rank
SciTegic.value.IntegerValue
58

@<SCITEGIC>MOL_PROPERTY
Conf_Id
SciTegic.value.IntegerValue
762

@<SCITEGIC>MOL_PROPERTY
Probability
SciTegic.value.DoubleValue
0.03

@<SCITEGIC>MOL_PROPERTY
Sum Probability
SciTegic.value.DoubleValue
99.69

@<SCITEGIC>MOL_PROPERTY
Delta G
SciTegic.value.DoubleValue
3.639

@<SCITEGIC>MOL_PROPERTY
G
SciTegic.value.DoubleValue
41.555

@<SCITEGIC>MOL_PROPERTY
E
SciTegic.value.DoubleValue
13.601

@<SCITEGIC>MOL_PROPERTY
-TS
SciTegic.value.DoubleValue
27.954

@<SCITEGIC>MOL_PROPERTY
U+W
SciTegic.value.DoubleValue
-5.178

@<SCITEGIC>MOL_PROPERTY
U
SciTegic.value.DoubleValue
50.700

@<SCITEGIC>MOL_PROPERTY
W
SciTegic.value.DoubleValue
-55.878

@<SCITEGIC>MOL_PROPERTY
W(PB)
SciTegic.value.DoubleValue
-57.963

@<SCITEGIC>MOL_PROPERTY
W(SA)
SciTegic.value.DoubleValue
2.085

@<SCITEGIC>MOL_PROPERTY
Valence
SciTegic.value.DoubleValue
4.818

@<SCITEGIC>MOL_PROPERTY
Coulomb
SciTegic.value.DoubleValue
45.214

@<SCITEGIC>MOL_PROPERTY
VdW
SciTegic.value.DoubleValue
0.668

@<SCITEGIC>MOL_PROPERTY
VdW6
SciTegic.value.DoubleValue
-6.660

@<SCITEGIC>MOL_PROPERTY
VdW12
SciTegic.value.DoubleValue
7.328

@<SCITEGIC>MOL_PROPERTY
Bond
SciTegic.value.DoubleValue
0.218

@<SCITEGIC>MOL_PROPERTY
Angle
SciTegic.value.DoubleValue
1.218

@<SCITEGIC>MOL_PROPERTY
Pdih
SciTegic.value.DoubleValue
3.382

@<SCITEGIC>MOL_PROPERTY
Idih
SciTegic.value.DoubleValue
0.000

@<SCITEGIC>MOL_PROPERTY
Tether
SciTegic.value.DoubleValue
0.000

@<TRIPOS>MOLECULE
guest-2_vm2.mol2 : vm2 ligand conformer 59
          23          22           1
SMALL
USER_CHARGES
 
@<TRIPOS>ATOM
       1    N1      19.655821   19.271966   25.798893 N.4        1 MOL1        -0.5940
       2    H1      20.534232   18.825271   26.080820 H          1 MOL1         0.3649
       3    H2      19.075056   19.347166   26.640906 H          1 MOL1         0.3649
       4    H3      19.882082   20.227004   25.505229 H          1 MOL1         0.3649
       5    C1      18.955992   18.496102   24.700023 C.3        1 MOL1         0.0207
       6    H4      18.020241   19.010275   24.464626 H          1 MOL1         0.0950
       7    H5      18.710531   17.507429   25.097324 H          1 MOL1         0.0950
       8    C2      19.796470   18.336889   23.418226 C.3        1 MOL1        -0.1415
       9    H6      20.737067   17.824774   23.660679 H          1 MOL1         0.0976
      10    H7      19.254639   17.675181   22.733226 H          1 MOL1         0.0976
      11    C3      20.097477   19.692414   22.729294 C.3        1 MOL1        -0.1375
      12    H8      20.707980   20.301262   23.409427 H          1 MOL1         0.0976
      13    H9      19.167272   20.254804   22.568703 H          1 MOL1         0.0976
      14    C4      20.866927   19.544654   21.390555 C.3        1 MOL1        -0.1375
      15    H10     21.564157   20.389298   21.301453 H          1 MOL1         0.0976
      16    H11     21.495382   18.643597   21.408871 H          1 MOL1         0.0976
      17    C5      19.971674   19.544777   20.124959 C.3        1 MOL1        -0.1350
      18    H12     20.620872   19.509922   19.238877 H          1 MOL1         0.0976
      19    H13     19.422901   20.494869   20.062139 H          1 MOL1         0.0976
      20    C6      18.971637   18.370196   20.052050 C.3        1 MOL1        -0.2365
      21    H14     18.460630   18.361590   19.080613 H          1 MOL1         0.0987
      22    H15     18.199802   18.455039   20.826870 H          1 MOL1         0.0987
      23    H16     19.483121   17.406271   20.170643 H          1 MOL1         0.0987
@<TRIPOS>BOND
    1     1     2    1
    2     1     3    1
    3     1     4    1
    4     1     5    1
    5     5     6    1
    6     5     7    1
    7     5     8    1
    8     8     9    1
    9     8    10    1
   10     8    11    1
   11    11    12    1
   12    11    13    1
   13    11    14    1
   14    14    15    1
   15    14    16    1
   16    14    17    1
   17    17    18    1
   18    17    19    1
   19    17    20    1
   20    20    21    1
   21    20    22    1
   22    20    23    1
@<TRIPOS>SUBSTRUCTURE
       1 MOL1            1 RESIDUE      1      MOL     
@<SCITEGIC>MOL_PROPERTY
VM2 Rank
SciTegic.value.IntegerValue
59

@<SCITEGIC>MOL_PROPERTY
Conf_Id
SciTegic.value.IntegerValue
172

@<SCITEGIC>MOL_PROPERTY
Probability
SciTegic.value.DoubleValue
0.03

@<SCITEGIC>MOL_PROPERTY
Sum Probability
SciTegic.value.DoubleValue
99.72

@<SCITEGIC>MOL_PROPERTY
Delta G
SciTegic.value.DoubleValue
3.654

@<SCITEGIC>MOL_PROPERTY
G
SciTegic.value.DoubleValue
41.570

@<SCITEGIC>MOL_PROPERTY
E
SciTegic.value.DoubleValue
13.584

@<SCITEGIC>MOL_PROPERTY
-TS
SciTegic.value.DoubleValue
27.986

@<SCITEGIC>MOL_PROPERTY
U+W
SciTegic.value.DoubleValue
-5.195

@<SCITEGIC>MOL_PROPERTY
U
SciTegic.value.DoubleValue
50.625

@<SCITEGIC>MOL_PROPERTY
W
SciTegic.value.DoubleValue
-55.821

@<SCITEGIC>MOL_PROPERTY
W(PB)
SciTegic.value.DoubleValue
-57.894

@<SCITEGIC>MOL_PROPERTY
W(SA)
SciTegic.value.DoubleValue
2.073

@<SCITEGIC>MOL_PROPERTY
Valence
SciTegic.value.DoubleValue
4.837

@<SCITEGIC>MOL_PROPERTY
Coulomb
SciTegic.value.DoubleValue
45.097

@<SCITEGIC>MOL_PROPERTY
VdW
SciTegic.value.DoubleValue
0.692

@<SCITEGIC>MOL_PROPERTY
VdW6
SciTegic.value.DoubleValue
-6.655

@<SCITEGIC>MOL_PROPERTY
VdW12
SciTegic.value.DoubleValue
7.347

@<SCITEGIC>MOL_PROPERTY
Bond
SciTegic.value.DoubleValue
0.223

@<SCITEGIC>MOL_PROPERTY
Angle
SciTegic.value.DoubleValue
1.167

@<SCITEGIC>MOL_PROPERTY
Pdih
SciTegic.value.DoubleValue
3.447

@<SCITEGIC>MOL_PROPERTY
Idih
SciTegic.value.DoubleValue
0.000

@<SCITEGIC>MOL_PROPERTY
Tether
SciTegic.value.DoubleValue
0.000

@<TRIPOS>MOLECULE
guest-2_vm2.mol2 : vm2 ligand conformer 60
          23          22           1
SMALL
USER_CHARGES
 
@<TRIPOS>ATOM
       1    N1      19.417696   19.173009   25.788035 N.4        1 MOL1        -0.5940
       2    H1      19.095244   18.226964   26.015299 H          1 MOL1         0.3649
       3    H2      18.605621   19.696251   25.447030 H          1 MOL1         0.3649
       4    H3      19.706937   19.610041   26.669665 H          1 MOL1         0.3649
       5    C1      20.543464   19.156234   24.772355 C.3        1 MOL1         0.0207
       6    H4      21.384777   18.619490   25.219201 H          1 MOL1         0.0950
       7    H5      20.854823   20.188981   24.593744 H          1 MOL1         0.0950
       8    C2      20.165439   18.490282   23.435057 C.3        1 MOL1        -0.1415
       9    H6      21.067370   18.428893   22.815848 H          1 MOL1         0.0976
      10    H7      19.848656   17.455333   23.620254 H          1 MOL1         0.0976
      11    C3      19.048100   19.256003   22.681467 C.3        1 MOL1        -0.1375
      12    H8      19.315637   20.316445   22.575441 H          1 MOL1         0.0976
      13    H9      18.135735   19.231613   23.292191 H          1 MOL1         0.0976
      14    C4      18.716282   18.650275   21.292547 C.3        1 MOL1        -0.1375
      15    H10     18.911426   17.569021   21.291113 H          1 MOL1         0.0976
      16    H11     17.635793   18.755630   21.122446 H          1 MOL1         0.0976
      17    C5      19.442910   19.324893   20.100864 C.3        1 MOL1        -0.1350
      18    H12     19.160554   20.385780   20.050197 H          1 MOL1         0.0976
      19    H13     19.080511   18.869358   19.168679 H          1 MOL1         0.0976
      20    C6      20.982110   19.206305   20.143675 C.3        1 MOL1        -0.2365
      21    H14     21.403846   19.787499   20.972908 H          1 MOL1         0.0987
      22    H15     21.422330   19.593310   19.215600 H          1 MOL1         0.0987
      23    H16     21.296120   18.160252   20.253244 H          1 MOL1         0.0987
@<TRIPOS>BOND
    1     1     2    1
    2     1     3    1
    3     1     4    1
    4     1     5    1
    5     5     6    1
    6     5     7    1
    7     5     8    1
    8     8     9    1
    9     8    10    1
   10     8    11    1
   11    11    12    1
   12    11    13    1
   13    11    14    1
   14    14    15    1
   15    14    16    1
   16    14    17    1
   17    17    18    1
   18    17    19    1
   19    17    20    1
   20    20    21    1
   21    20    22    1
   22    20    23    1
@<TRIPOS>SUBSTRUCTURE
       1 MOL1            1 RESIDUE      1      MOL     
@<SCITEGIC>MOL_PROPERTY
VM2 Rank
SciTegic.value.IntegerValue
60

@<SCITEGIC>MOL_PROPERTY
Conf_Id
SciTegic.value.IntegerValue
285

@<SCITEGIC>MOL_PROPERTY
Probability
SciTegic.value.DoubleValue
0.02

@<SCITEGIC>MOL_PROPERTY
Sum Probability
SciTegic.value.DoubleValue
99.74

@<SCITEGIC>MOL_PROPERTY
Delta G
SciTegic.value.DoubleValue
3.698

@<SCITEGIC>MOL_PROPERTY
G
SciTegic.value.DoubleValue
41.615

@<SCITEGIC>MOL_PROPERTY
E
SciTegic.value.DoubleValue
13.628

@<SCITEGIC>MOL_PROPERTY
-TS
SciTegic.value.DoubleValue
27.986

@<SCITEGIC>MOL_PROPERTY
U+W
SciTegic.value.DoubleValue
-5.151

@<SCITEGIC>MOL_PROPERTY
U
SciTegic.value.DoubleValue
50.625

@<SCITEGIC>MOL_PROPERTY
W
SciTegic.value.DoubleValue
-55.776

@<SCITEGIC>MOL_PROPERTY
W(PB)
SciTegic.value.DoubleValue
-57.840

@<SCITEGIC>MOL_PROPERTY
W(SA)
SciTegic.value.DoubleValue
2.064

@<SCITEGIC>MOL_PROPERTY
Valence
SciTegic.value.DoubleValue
4.837

@<SCITEGIC>MOL_PROPERTY
Coulomb
SciTegic.value.DoubleValue
45.097

@<SCITEGIC>MOL_PROPERTY
VdW
SciTegic.value.DoubleValue
0.692

@<SCITEGIC>MOL_PROPERTY
VdW6
SciTegic.value.DoubleValue
-6.655

@<SCITEGIC>MOL_PROPERTY
VdW12
SciTegic.value.DoubleValue
7.347

@<SCITEGIC>MOL_PROPERTY
Bond
SciTegic.value.DoubleValue
0.223

@<SCITEGIC>MOL_PROPERTY
Angle
SciTegic.value.DoubleValue
1.167

@<SCITEGIC>MOL_PROPERTY
Pdih
SciTegic.value.DoubleValue
3.447

@<SCITEGIC>MOL_PROPERTY
Idih
SciTegic.value.DoubleValue
0.000

@<SCITEGIC>MOL_PROPERTY
Tether
SciTegic.value.DoubleValue
0.000

@<TRIPOS>MOLECULE
guest-2_vm2.mol2 : vm2 ligand conformer 61
          23          22           1
SMALL
USER_CHARGES
 
@<TRIPOS>ATOM
       1    N1      20.018498   18.746446   25.775839 N.4        1 MOL1        -0.5940
       2    H1      20.517643   17.852611   25.725379 H          1 MOL1         0.3649
       3    H2      19.682283   18.846902   26.739591 H          1 MOL1         0.3649
       4    H3      20.708402   19.487729   25.621146 H          1 MOL1         0.3649
       5    C1      18.882478   18.815204   24.773683 C.3        1 MOL1         0.0207
       6    H4      18.379256   19.778218   24.895305 H          1 MOL1         0.0950
       7    H5      18.170624   18.024920   25.027227 H          1 MOL1         0.0950
       8    C2      19.331560   18.645469   23.309186 C.3        1 MOL1        -0.1415
       9    H6      19.860843   17.690168   23.195567 H          1 MOL1         0.0976
      10    H7      18.430133   18.588293   22.686871 H          1 MOL1         0.0976
      11    C3      20.223142   19.811721   22.817511 C.3        1 MOL1        -0.1375
      12    H8      21.072447   19.935937   23.502042 H          1 MOL1         0.0976
      13    H9      19.653263   20.750040   22.864433 H          1 MOL1         0.0976
      14    C4      20.788866   19.624392   21.385756 C.3        1 MOL1        -0.1375
      15    H10     21.434625   20.487086   21.170721 H          1 MOL1         0.0976
      16    H11     21.448846   18.746590   21.352408 H          1 MOL1         0.0976
      17    C5      19.718448   19.533514   20.267550 C.3        1 MOL1        -0.1350
      18    H12     20.107825   20.032263   19.368879 H          1 MOL1         0.0976
      19    H13     18.816548   20.091620   20.555113 H          1 MOL1         0.0976
      20    C6      19.353009   18.080254   19.884474 C.3        1 MOL1        -0.2365
      21    H14     20.235903   17.536824   19.523585 H          1 MOL1         0.0987
      22    H15     18.605757   18.071522   19.080451 H          1 MOL1         0.0987
      23    H16     18.936875   17.522189   20.730355 H          1 MOL1         0.0987
@<TRIPOS>BOND
    1     1     2    1
    2     1     3    1
    3     1     4    1
    4     1     5    1
    5     5     6    1
    6     5     7    1
    7     5     8    1
    8     8     9    1
    9     8    10    1
   10     8    11    1
   11    11    12    1
   12    11    13    1
   13    11    14    1
   14    14    15    1
   15    14    16    1
   16    14    17    1
   17    17    18    1
   18    17    19    1
   19    17    20    1
   20    20    21    1
   21    20    22    1
   22    20    23    1
@<TRIPOS>SUBSTRUCTURE
       1 MOL1            1 RESIDUE      1      MOL     
@<SCITEGIC>MOL_PROPERTY
VM2 Rank
SciTegic.value.IntegerValue
61

@<SCITEGIC>MOL_PROPERTY
Conf_Id
SciTegic.value.IntegerValue
529

@<SCITEGIC>MOL_PROPERTY
Probability
SciTegic.value.DoubleValue
0.02

@<SCITEGIC>MOL_PROPERTY
Sum Probability
SciTegic.value.DoubleValue
99.77

@<SCITEGIC>MOL_PROPERTY
Delta G
SciTegic.value.DoubleValue
3.713

@<SCITEGIC>MOL_PROPERTY
G
SciTegic.value.DoubleValue
41.629

@<SCITEGIC>MOL_PROPERTY
E
SciTegic.value.DoubleValue
13.680

@<SCITEGIC>MOL_PROPERTY
-TS
SciTegic.value.DoubleValue
27.949

@<SCITEGIC>MOL_PROPERTY
U+W
SciTegic.value.DoubleValue
-5.099

@<SCITEGIC>MOL_PROPERTY
U
SciTegic.value.DoubleValue
50.701

@<SCITEGIC>MOL_PROPERTY
W
SciTegic.value.DoubleValue
-55.800

@<SCITEGIC>MOL_PROPERTY
W(PB)
SciTegic.value.DoubleValue
-57.867

@<SCITEGIC>MOL_PROPERTY
W(SA)
SciTegic.value.DoubleValue
2.067

@<SCITEGIC>MOL_PROPERTY
Valence
SciTegic.value.DoubleValue
4.881

@<SCITEGIC>MOL_PROPERTY
Coulomb
SciTegic.value.DoubleValue
45.095

@<SCITEGIC>MOL_PROPERTY
VdW
SciTegic.value.DoubleValue
0.726

@<SCITEGIC>MOL_PROPERTY
VdW6
SciTegic.value.DoubleValue
-6.620

@<SCITEGIC>MOL_PROPERTY
VdW12
SciTegic.value.DoubleValue
7.345

@<SCITEGIC>MOL_PROPERTY
Bond
SciTegic.value.DoubleValue
0.222

@<SCITEGIC>MOL_PROPERTY
Angle
SciTegic.value.DoubleValue
1.260

@<SCITEGIC>MOL_PROPERTY
Pdih
SciTegic.value.DoubleValue
3.398

@<SCITEGIC>MOL_PROPERTY
Idih
SciTegic.value.DoubleValue
0.000

@<SCITEGIC>MOL_PROPERTY
Tether
SciTegic.value.DoubleValue
0.000

@<TRIPOS>MOLECULE
guest-2_vm2.mol2 : vm2 ligand conformer 62
          23          22           1
SMALL
USER_CHARGES
 
@<TRIPOS>ATOM
       1    N1      20.827882   18.808362   25.241637 N.4        1 MOL1        -0.5940
       2    H1      21.363526   18.017021   24.871082 H          1 MOL1         0.3649
       3    H2      21.014889   18.850341   26.249218 H          1 MOL1         0.3649
       4    H3      21.219813   19.660064   24.828799 H          1 MOL1         0.3649
       5    C1      19.346108   18.672213   24.950126 C.3        1 MOL1         0.0207
       6    H4      18.832429   19.529544   25.393432 H          1 MOL1         0.0950
       7    H5      18.991753   17.766849   25.450438 H          1 MOL1         0.0950
       8    C2      19.014637   18.588712   23.447684 C.3        1 MOL1        -0.1415
       9    H6      19.534577   17.728816   23.010815 H          1 MOL1         0.0976
      10    H7      17.940680   18.385563   23.342529 H          1 MOL1         0.0976
      11    C3      19.362097   19.894339   22.687625 C.3        1 MOL1        -0.1375
      12    H8      20.428147   20.135611   22.791845 H          1 MOL1         0.0976
      13    H9      18.815440   20.720435   23.163395 H          1 MOL1         0.0976
      14    C4      18.978192   19.854474   21.185223 C.3        1 MOL1        -0.1375
      15    H10     18.103987   19.207102   21.031133 H          1 MOL1         0.0976
      16    H11     18.655422   20.861959   20.888139 H          1 MOL1         0.0976
      17    C5      20.126555   19.434215   20.232421 C.3        1 MOL1        -0.1350
      18    H12     20.955412   20.151051   20.315423 H          1 MOL1         0.0976
      19    H13     19.764300   19.507560   19.197432 H          1 MOL1         0.0976
      20    C6      20.660528   18.004685   20.469284 C.3        1 MOL1        -0.2365
      21    H14     21.190352   17.930883   21.426738 H          1 MOL1         0.0987
      22    H15     21.370828   17.725340   19.680412 H          1 MOL1         0.0987
      23    H16     19.844749   17.270318   20.461930 H          1 MOL1         0.0987
@<TRIPOS>BOND
    1     1     2    1
    2     1     3    1
    3     1     4    1
    4     1     5    1
    5     5     6    1
    6     5     7    1
    7     5     8    1
    8     8     9    1
    9     8    10    1
   10     8    11    1
   11    11    12    1
   12    11    13    1
   13    11    14    1
   14    14    15    1
   15    14    16    1
   16    14    17    1
   17    17    18    1
   18    17    19    1
   19    17    20    1
   20    20    21    1
   21    20    22    1
   22    20    23    1
@<TRIPOS>SUBSTRUCTURE
       1 MOL1            1 RESIDUE      1      MOL     
@<SCITEGIC>MOL_PROPERTY
VM2 Rank
SciTegic.value.IntegerValue
62

@<SCITEGIC>MOL_PROPERTY
Conf_Id
SciTegic.value.IntegerValue
861

@<SCITEGIC>MOL_PROPERTY
Probability
SciTegic.value.DoubleValue
0.02

@<SCITEGIC>MOL_PROPERTY
Sum Probability
SciTegic.value.DoubleValue
99.79

@<SCITEGIC>MOL_PROPERTY
Delta G
SciTegic.value.DoubleValue
3.762

@<SCITEGIC>MOL_PROPERTY
G
SciTegic.value.DoubleValue
41.678

@<SCITEGIC>MOL_PROPERTY
E
SciTegic.value.DoubleValue
13.724

@<SCITEGIC>MOL_PROPERTY
-TS
SciTegic.value.DoubleValue
27.954

@<SCITEGIC>MOL_PROPERTY
U+W
SciTegic.value.DoubleValue
-5.055

@<SCITEGIC>MOL_PROPERTY
U
SciTegic.value.DoubleValue
50.975

@<SCITEGIC>MOL_PROPERTY
W
SciTegic.value.DoubleValue
-56.030

@<SCITEGIC>MOL_PROPERTY
W(PB)
SciTegic.value.DoubleValue
-58.077

@<SCITEGIC>MOL_PROPERTY
W(SA)
SciTegic.value.DoubleValue
2.047

@<SCITEGIC>MOL_PROPERTY
Valence
SciTegic.value.DoubleValue
4.792

@<SCITEGIC>MOL_PROPERTY
Coulomb
SciTegic.value.DoubleValue
45.573

@<SCITEGIC>MOL_PROPERTY
VdW
SciTegic.value.DoubleValue
0.610

@<SCITEGIC>MOL_PROPERTY
VdW6
SciTegic.value.DoubleValue
-6.731

@<SCITEGIC>MOL_PROPERTY
VdW12
SciTegic.value.DoubleValue
7.341

@<SCITEGIC>MOL_PROPERTY
Bond
SciTegic.value.DoubleValue
0.224

@<SCITEGIC>MOL_PROPERTY
Angle
SciTegic.value.DoubleValue
1.226

@<SCITEGIC>MOL_PROPERTY
Pdih
SciTegic.value.DoubleValue
3.342

@<SCITEGIC>MOL_PROPERTY
Idih
SciTegic.value.DoubleValue
0.000

@<SCITEGIC>MOL_PROPERTY
Tether
SciTegic.value.DoubleValue
0.000

@<TRIPOS>MOLECULE
guest-2_vm2.mol2 : vm2 ligand conformer 63
          23          22           1
SMALL
USER_CHARGES
 
@<TRIPOS>ATOM
       1    N1      18.966308   18.034167   25.157028 N.4        1 MOL1        -0.5940
       2    H1      18.120199   18.370982   24.687885 H          1 MOL1         0.3649
       3    H2      18.727300   17.898955   26.145232 H          1 MOL1         0.3649
       4    H3      19.179106   17.108562   24.771779 H          1 MOL1         0.3649
       5    C1      20.125576   18.996405   24.985653 C.3        1 MOL1         0.0207
       6    H4      20.976498   18.592334   25.540828 H          1 MOL1         0.0950
       7    H5      19.844992   19.950699   25.439522 H          1 MOL1         0.0950
       8    C2      20.533779   19.220458   23.516861 C.3        1 MOL1        -0.1415
       9    H6      21.439746   19.840707   23.501792 H          1 MOL1         0.0976
      10    H7      20.811254   18.259709   23.068999 H          1 MOL1         0.0976
      11    C3      19.424509   19.920232   22.690475 C.3        1 MOL1        -0.1375
      12    H8      19.186562   20.874698   23.180374 H          1 MOL1         0.0976
      13    H9      18.497242   19.332410   22.703838 H          1 MOL1         0.0976
      14    C4      19.838751   20.212458   21.224461 C.3        1 MOL1        -0.1375
      15    H10     19.375081   21.161348   20.921009 H          1 MOL1         0.0976
      16    H11     20.922685   20.379649   21.159626 H          1 MOL1         0.0976
      17    C5      19.404106   19.133756   20.199438 C.3        1 MOL1        -0.1350
      18    H12     19.686771   19.475429   19.193868 H          1 MOL1         0.0976
      19    H13     18.308338   19.049995   20.194696 H          1 MOL1         0.0976
      20    C6      20.022971   17.739524   20.440084 C.3        1 MOL1        -0.2365
      21    H14     21.116099   17.799213   20.519790 H          1 MOL1         0.0987
      22    H15     19.783371   17.065095   19.607850 H          1 MOL1         0.0987
      23    H16     19.628989   17.281380   21.355376 H          1 MOL1         0.0987
@<TRIPOS>BOND
    1     1     2    1
    2     1     3    1
    3     1     4    1
    4     1     5    1
    5     5     6    1
    6     5     7    1
    7     5     8    1
    8     8     9    1
    9     8    10    1
   10     8    11    1
   11    11    12    1
   12    11    13    1
   13    11    14    1
   14    14    15    1
   15    14    16    1
   16    14    17    1
   17    17    18    1
   18    17    19    1
   19    17    20    1
   20    20    21    1
   21    20    22    1
   22    20    23    1
@<TRIPOS>SUBSTRUCTURE
       1 MOL1            1 RESIDUE      1      MOL     
@<SCITEGIC>MOL_PROPERTY
VM2 Rank
SciTegic.value.IntegerValue
63

@<SCITEGIC>MOL_PROPERTY
Conf_Id
SciTegic.value.IntegerValue
757

@<SCITEGIC>MOL_PROPERTY
Probability
SciTegic.value.DoubleValue
0.02

@<SCITEGIC>MOL_PROPERTY
Sum Probability
SciTegic.value.DoubleValue
99.81

@<SCITEGIC>MOL_PROPERTY
Delta G
SciTegic.value.DoubleValue
3.797

@<SCITEGIC>MOL_PROPERTY
G
SciTegic.value.DoubleValue
41.713

@<SCITEGIC>MOL_PROPERTY
E
SciTegic.value.DoubleValue
13.759

@<SCITEGIC>MOL_PROPERTY
-TS
SciTegic.value.DoubleValue
27.953

@<SCITEGIC>MOL_PROPERTY
U+W
SciTegic.value.DoubleValue
-5.020

@<SCITEGIC>MOL_PROPERTY
U
SciTegic.value.DoubleValue
50.975

@<SCITEGIC>MOL_PROPERTY
W
SciTegic.value.DoubleValue
-55.995

@<SCITEGIC>MOL_PROPERTY
W(PB)
SciTegic.value.DoubleValue
-58.046

@<SCITEGIC>MOL_PROPERTY
W(SA)
SciTegic.value.DoubleValue
2.051

@<SCITEGIC>MOL_PROPERTY
Valence
SciTegic.value.DoubleValue
4.792

@<SCITEGIC>MOL_PROPERTY
Coulomb
SciTegic.value.DoubleValue
45.573

@<SCITEGIC>MOL_PROPERTY
VdW
SciTegic.value.DoubleValue
0.610

@<SCITEGIC>MOL_PROPERTY
VdW6
SciTegic.value.DoubleValue
-6.731

@<SCITEGIC>MOL_PROPERTY
VdW12
SciTegic.value.DoubleValue
7.341

@<SCITEGIC>MOL_PROPERTY
Bond
SciTegic.value.DoubleValue
0.224

@<SCITEGIC>MOL_PROPERTY
Angle
SciTegic.value.DoubleValue
1.226

@<SCITEGIC>MOL_PROPERTY
Pdih
SciTegic.value.DoubleValue
3.342

@<SCITEGIC>MOL_PROPERTY
Idih
SciTegic.value.DoubleValue
0.000

@<SCITEGIC>MOL_PROPERTY
Tether
SciTegic.value.DoubleValue
0.000

@<TRIPOS>MOLECULE
guest-2_vm2.mol2 : vm2 ligand conformer 64
          23          22           1
SMALL
USER_CHARGES
 
@<TRIPOS>ATOM
       1    N1      19.536777   18.546399   25.753974 N.4        1 MOL1        -0.5940
       2    H1      18.539688   18.586171   25.522386 H          1 MOL1         0.3649
       3    H2      19.626985   18.824330   26.737115 H          1 MOL1         0.3649
       4    H3      19.822854   17.563958   25.693962 H          1 MOL1         0.3649
       5    C1      20.363519   19.431163   24.841132 C.3        1 MOL1         0.0207
       6    H4      21.403037   19.369175   25.174496 H          1 MOL1         0.0950
       7    H5      20.025822   20.463024   24.970149 H          1 MOL1         0.0950
       8    C2      20.281937   19.040575   23.352502 C.3        1 MOL1        -0.1415
       9    H6      21.003495   19.658378   22.804064 H          1 MOL1         0.0976
      10    H7      20.595431   17.995514   23.229141 H          1 MOL1         0.0976
      11    C3      18.868534   19.248079   22.755811 C.3        1 MOL1        -0.1375
      12    H8      18.600629   20.312006   22.816576 H          1 MOL1         0.0976
      13    H9      18.131316   18.712295   23.368001 H          1 MOL1         0.0976
      14    C4      18.715097   18.761702   21.291246 C.3        1 MOL1        -0.1375
      15    H10     18.875911   17.676249   21.235061 H          1 MOL1         0.0976
      16    H11     17.667699   18.920070   20.999070 H          1 MOL1         0.0976
      17    C5      19.617525   19.491623   20.263003 C.3        1 MOL1        -0.1350
      18    H12     19.833232   20.514560   20.601630 H          1 MOL1         0.0976
      19    H13     19.060751   19.596960   19.321262 H          1 MOL1         0.0976
      20    C6      20.932611   18.737459   19.956332 C.3        1 MOL1        -0.2365
      21    H14     21.525688   19.286405   19.213477 H          1 MOL1         0.0987
      22    H15     20.725546   17.740729   19.545585 H          1 MOL1         0.0987
      23    H16     21.554238   18.610879   20.849461 H          1 MOL1         0.0987
@<TRIPOS>BOND
    1     1     2    1
    2     1     3    1
    3     1     4    1
    4     1     5    1
    5     5     6    1
    6     5     7    1
    7     5     8    1
    8     8     9    1
    9     8    10    1
   10     8    11    1
   11    11    12    1
   12    11    13    1
   13    11    14    1
   14    14    15    1
   15    14    16    1
   16    14    17    1
   17    17    18    1
   18    17    19    1
   19    17    20    1
   20    20    21    1
   21    20    22    1
   22    20    23    1
@<TRIPOS>SUBSTRUCTURE
       1 MOL1            1 RESIDUE      1      MOL     
@<SCITEGIC>MOL_PROPERTY
VM2 Rank
SciTegic.value.IntegerValue
64

@<SCITEGIC>MOL_PROPERTY
Conf_Id
SciTegic.value.IntegerValue
445

@<SCITEGIC>MOL_PROPERTY
Probability
SciTegic.value.DoubleValue
0.02

@<SCITEGIC>MOL_PROPERTY
Sum Probability
SciTegic.value.DoubleValue
99.83

@<SCITEGIC>MOL_PROPERTY
Delta G
SciTegic.value.DoubleValue
3.803

@<SCITEGIC>MOL_PROPERTY
G
SciTegic.value.DoubleValue
41.719

@<SCITEGIC>MOL_PROPERTY
E
SciTegic.value.DoubleValue
13.770

@<SCITEGIC>MOL_PROPERTY
-TS
SciTegic.value.DoubleValue
27.949

@<SCITEGIC>MOL_PROPERTY
U+W
SciTegic.value.DoubleValue
-5.009

@<SCITEGIC>MOL_PROPERTY
U
SciTegic.value.DoubleValue
50.701

@<SCITEGIC>MOL_PROPERTY
W
SciTegic.value.DoubleValue
-55.710

@<SCITEGIC>MOL_PROPERTY
W(PB)
SciTegic.value.DoubleValue
-57.768

@<SCITEGIC>MOL_PROPERTY
W(SA)
SciTegic.value.DoubleValue
2.058

@<SCITEGIC>MOL_PROPERTY
Valence
SciTegic.value.DoubleValue
4.881

@<SCITEGIC>MOL_PROPERTY
Coulomb
SciTegic.value.DoubleValue
45.094

@<SCITEGIC>MOL_PROPERTY
VdW
SciTegic.value.DoubleValue
0.726

@<SCITEGIC>MOL_PROPERTY
VdW6
SciTegic.value.DoubleValue
-6.620

@<SCITEGIC>MOL_PROPERTY
VdW12
SciTegic.value.DoubleValue
7.345

@<SCITEGIC>MOL_PROPERTY
Bond
SciTegic.value.DoubleValue
0.222

@<SCITEGIC>MOL_PROPERTY
Angle
SciTegic.value.DoubleValue
1.260

@<SCITEGIC>MOL_PROPERTY
Pdih
SciTegic.value.DoubleValue
3.398

@<SCITEGIC>MOL_PROPERTY
Idih
SciTegic.value.DoubleValue
0.000

@<SCITEGIC>MOL_PROPERTY
Tether
SciTegic.value.DoubleValue
0.000

@<TRIPOS>MOLECULE
guest-2_vm2.mol2 : vm2 ligand conformer 65
          23          22           1
SMALL
USER_CHARGES
 
@<TRIPOS>ATOM
       1    N1      20.989789   18.913359   24.756429 N.4        1 MOL1        -0.5940
       2    H1      21.721141   18.238404   25.004221 H          1 MOL1         0.3649
       3    H2      20.863523   19.527894   25.567018 H          1 MOL1         0.3649
       4    H3      21.355248   19.490166   23.992999 H          1 MOL1         0.3649
       5    C1      19.695975   18.225423   24.367069 C.3        1 MOL1         0.0207
       6    H4      19.378108   17.613708   25.215757 H          1 MOL1         0.0950
       7    H5      19.899201   17.554806   23.529334 H          1 MOL1         0.0950
       8    C2      18.564400   19.201905   23.993051 C.3        1 MOL1        -0.1415
       9    H6      17.657980   18.621836   23.774741 H          1 MOL1         0.0976
      10    H7      18.325440   19.813443   24.873247 H          1 MOL1         0.0976
      11    C3      18.869406   20.142249   22.796323 C.3        1 MOL1        -0.1375
      12    H8      19.736314   20.780115   23.014058 H          1 MOL1         0.0976
      13    H9      18.018726   20.831185   22.700462 H          1 MOL1         0.0976
      14    C4      19.053016   19.426411   21.432213 C.3        1 MOL1        -0.1375
      15    H10     18.371455   18.567488   21.362612 H          1 MOL1         0.0976
      16    H11     18.744424   20.121688   20.639155 H          1 MOL1         0.0976
      17    C5      20.506789   18.983144   21.138525 C.3        1 MOL1        -0.1350
      18    H12     20.847161   18.249096   21.877284 H          1 MOL1         0.0976
      19    H13     21.180445   19.847873   21.215637 H          1 MOL1         0.0976
      20    C6      20.636624   18.364510   19.730391 C.3        1 MOL1        -0.2365
      21    H14     20.348331   19.084856   18.953726 H          1 MOL1         0.0987
      22    H15     19.997247   17.477902   19.628636 H          1 MOL1         0.0987
      23    H16     21.672306   18.056888   19.536042 H          1 MOL1         0.0987
@<TRIPOS>BOND
    1     1     2    1
    2     1     3    1
    3     1     4    1
    4     1     5    1
    5     5     6    1
    6     5     7    1
    7     5     8    1
    8     8     9    1
    9     8    10    1
   10     8    11    1
   11    11    12    1
   12    11    13    1
   13    11    14    1
   14    14    15    1
   15    14    16    1
   16    14    17    1
   17    17    18    1
   18    17    19    1
   19    17    20    1
   20    20    21    1
   21    20    22    1
   22    20    23    1
@<TRIPOS>SUBSTRUCTURE
       1 MOL1            1 RESIDUE      1      MOL     
@<SCITEGIC>MOL_PROPERTY
VM2 Rank
SciTegic.value.IntegerValue
65

@<SCITEGIC>MOL_PROPERTY
Conf_Id
SciTegic.value.IntegerValue
942

@<SCITEGIC>MOL_PROPERTY
Probability
SciTegic.value.DoubleValue
0.02

@<SCITEGIC>MOL_PROPERTY
Sum Probability
SciTegic.value.DoubleValue
99.85

@<SCITEGIC>MOL_PROPERTY
Delta G
SciTegic.value.DoubleValue
3.860

@<SCITEGIC>MOL_PROPERTY
G
SciTegic.value.DoubleValue
41.776

@<SCITEGIC>MOL_PROPERTY
E
SciTegic.value.DoubleValue
13.756

@<SCITEGIC>MOL_PROPERTY
-TS
SciTegic.value.DoubleValue
28.020

@<SCITEGIC>MOL_PROPERTY
U+W
SciTegic.value.DoubleValue
-5.023

@<SCITEGIC>MOL_PROPERTY
U
SciTegic.value.DoubleValue
51.112

@<SCITEGIC>MOL_PROPERTY
W
SciTegic.value.DoubleValue
-56.135

@<SCITEGIC>MOL_PROPERTY
W(PB)
SciTegic.value.DoubleValue
-58.229

@<SCITEGIC>MOL_PROPERTY
W(SA)
SciTegic.value.DoubleValue
2.094

@<SCITEGIC>MOL_PROPERTY
Valence
SciTegic.value.DoubleValue
4.455

@<SCITEGIC>MOL_PROPERTY
Coulomb
SciTegic.value.DoubleValue
46.320

@<SCITEGIC>MOL_PROPERTY
VdW
SciTegic.value.DoubleValue
0.337

@<SCITEGIC>MOL_PROPERTY
VdW6
SciTegic.value.DoubleValue
-7.022

@<SCITEGIC>MOL_PROPERTY
VdW12
SciTegic.value.DoubleValue
7.359

@<SCITEGIC>MOL_PROPERTY
Bond
SciTegic.value.DoubleValue
0.222

@<SCITEGIC>MOL_PROPERTY
Angle
SciTegic.value.DoubleValue
1.454

@<SCITEGIC>MOL_PROPERTY
Pdih
SciTegic.value.DoubleValue
2.779

@<SCITEGIC>MOL_PROPERTY
Idih
SciTegic.value.DoubleValue
0.000

@<SCITEGIC>MOL_PROPERTY
Tether
SciTegic.value.DoubleValue
0.000

@<TRIPOS>MOLECULE
guest-2_vm2.mol2 : vm2 ligand conformer 66
          23          22           1
SMALL
USER_CHARGES
 
@<TRIPOS>ATOM
       1    N1      20.302567   18.196607   25.653737 N.4        1 MOL1        -0.5940
       2    H1      20.955175   18.563264   26.354922 H          1 MOL1         0.3649
       3    H2      20.718768   17.337854   25.279518 H          1 MOL1         0.3649
       4    H3      19.449823   17.925559   26.153898 H          1 MOL1         0.3649
       5    C1      20.020323   19.210134   24.563327 C.3        1 MOL1         0.0207
       6    H4      20.972978   19.474396   24.097725 H          1 MOL1         0.0950
       7    H5      19.607706   20.106255   25.034593 H          1 MOL1         0.0950
       8    C2      19.040529   18.689460   23.494448 C.3        1 MOL1        -0.1415
       9    H6      19.450408   17.784161   23.033253 H          1 MOL1         0.0976
      10    H7      18.106155   18.390169   23.987532 H          1 MOL1         0.0976
      11    C3      18.713473   19.753638   22.416072 C.3        1 MOL1        -0.1375
      12    H8      18.331562   20.648712   22.926594 H          1 MOL1         0.0976
      13    H9      17.887239   19.398995   21.784705 H          1 MOL1         0.0976
      14    C4      19.913667   20.166963   21.520632 C.3        1 MOL1        -0.1375
      15    H10     19.792536   21.227600   21.260269 H          1 MOL1         0.0976
      16    H11     20.857611   20.108693   22.077390 H          1 MOL1         0.0976
      17    C5      20.036026   19.376389   20.192898 C.3        1 MOL1        -0.1350
      18    H12     20.863129   19.804027   19.609068 H          1 MOL1         0.0976
      19    H13     19.129812   19.525280   19.589272 H          1 MOL1         0.0976
      20    C6      20.289415   17.863808   20.372886 C.3        1 MOL1        -0.2365
      21    H14     21.143279   17.680803   21.037955 H          1 MOL1         0.0987
      22    H15     20.510503   17.394599   19.405495 H          1 MOL1         0.0987
      23    H16     19.407900   17.358883   20.786206 H          1 MOL1         0.0987
@<TRIPOS>BOND
    1     1     2    1
    2     1     3    1
    3     1     4    1
    4     1     5    1
    5     5     6    1
    6     5     7    1
    7     5     8    1
    8     8     9    1
    9     8    10    1
   10     8    11    1
   11    11    12    1
   12    11    13    1
   13    11    14    1
   14    14    15    1
   15    14    16    1
   16    14    17    1
   17    17    18    1
   18    17    19    1
   19    17    20    1
   20    20    21    1
   21    20    22    1
   22    20    23    1
@<TRIPOS>SUBSTRUCTURE
       1 MOL1            1 RESIDUE      1      MOL     
@<SCITEGIC>MOL_PROPERTY
VM2 Rank
SciTegic.value.IntegerValue
66

@<SCITEGIC>MOL_PROPERTY
Conf_Id
SciTegic.value.IntegerValue
506

@<SCITEGIC>MOL_PROPERTY
Probability
SciTegic.value.DoubleValue
0.02

@<SCITEGIC>MOL_PROPERTY
Sum Probability
SciTegic.value.DoubleValue
99.87

@<SCITEGIC>MOL_PROPERTY
Delta G
SciTegic.value.DoubleValue
3.868

@<SCITEGIC>MOL_PROPERTY
G
SciTegic.value.DoubleValue
41.785

@<SCITEGIC>MOL_PROPERTY
E
SciTegic.value.DoubleValue
13.890

@<SCITEGIC>MOL_PROPERTY
-TS
SciTegic.value.DoubleValue
27.895

@<SCITEGIC>MOL_PROPERTY
U+W
SciTegic.value.DoubleValue
-4.889

@<SCITEGIC>MOL_PROPERTY
U
SciTegic.value.DoubleValue
51.036

@<SCITEGIC>MOL_PROPERTY
W
SciTegic.value.DoubleValue
-55.925

@<SCITEGIC>MOL_PROPERTY
W(PB)
SciTegic.value.DoubleValue
-57.987

@<SCITEGIC>MOL_PROPERTY
W(SA)
SciTegic.value.DoubleValue
2.061

@<SCITEGIC>MOL_PROPERTY
Valence
SciTegic.value.DoubleValue
5.117

@<SCITEGIC>MOL_PROPERTY
Coulomb
SciTegic.value.DoubleValue
45.322

@<SCITEGIC>MOL_PROPERTY
VdW
SciTegic.value.DoubleValue
0.598

@<SCITEGIC>MOL_PROPERTY
VdW6
SciTegic.value.DoubleValue
-6.707

@<SCITEGIC>MOL_PROPERTY
VdW12
SciTegic.value.DoubleValue
7.305

@<SCITEGIC>MOL_PROPERTY
Bond
SciTegic.value.DoubleValue
0.233

@<SCITEGIC>MOL_PROPERTY
Angle
SciTegic.value.DoubleValue
1.410

@<SCITEGIC>MOL_PROPERTY
Pdih
SciTegic.value.DoubleValue
3.474

@<SCITEGIC>MOL_PROPERTY
Idih
SciTegic.value.DoubleValue
0.000

@<SCITEGIC>MOL_PROPERTY
Tether
SciTegic.value.DoubleValue
0.000

@<TRIPOS>MOLECULE
guest-2_vm2.mol2 : vm2 ligand conformer 67
          23          22           1
SMALL
USER_CHARGES
 
@<TRIPOS>ATOM
       1    N1      19.736150   17.961172   25.628123 N.4        1 MOL1        -0.5940
       2    H1      18.964095   17.735491   26.264514 H          1 MOL1         0.3649
       3    H2      20.488056   18.357348   26.201256 H          1 MOL1         0.3649
       4    H3      20.080658   17.072596   25.250673 H          1 MOL1         0.3649
       5    C1      19.301434   18.911262   24.530747 C.3        1 MOL1         0.0207
       6    H4      18.920449   19.820550   25.003424 H          1 MOL1         0.0950
       7    H5      18.481491   18.438486   23.984533 H          1 MOL1         0.0950
       8    C2      20.440705   19.271655   23.558236 C.3        1 MOL1        -0.1415
       9    H6      21.270473   19.705910   24.131535 H          1 MOL1         0.0976
      10    H7      20.829326   18.357511   23.096078 H          1 MOL1         0.0976
      11    C3      20.000615   20.288810   22.474708 C.3        1 MOL1        -0.1375
      12    H8      20.880671   20.643796   21.921042 H          1 MOL1         0.0976
      13    H9      19.595564   21.174268   22.984161 H          1 MOL1         0.0976
      14    C4      18.934835   19.759658   21.476097 C.3        1 MOL1        -0.1375
      15    H10     18.270434   19.032160   21.959548 H          1 MOL1         0.0976
      16    H11     18.289039   20.602077   21.192040 H          1 MOL1         0.0976
      17    C5      19.511506   19.158333   20.168921 C.3        1 MOL1        -0.1350
      18    H12     20.088860   19.924565   19.632912 H          1 MOL1         0.0976
      19    H13     18.673371   18.893253   19.509305 H          1 MOL1         0.0976
      20    C6      20.390755   17.906110   20.377168 C.3        1 MOL1        -0.2365
      21    H14     20.642894   17.450041   19.411087 H          1 MOL1         0.0987
      22    H15     19.869458   17.150796   20.979364 H          1 MOL1         0.0987
      23    H16     21.334899   18.160684   20.873794 H          1 MOL1         0.0987
@<TRIPOS>BOND
    1     1     2    1
    2     1     3    1
    3     1     4    1
    4     1     5    1
    5     5     6    1
    6     5     7    1
    7     5     8    1
    8     8     9    1
    9     8    10    1
   10     8    11    1
   11    11    12    1
   12    11    13    1
   13    11    14    1
   14    14    15    1
   15    14    16    1
   16    14    17    1
   17    17    18    1
   18    17    19    1
   19    17    20    1
   20    20    21    1
   21    20    22    1
   22    20    23    1
@<TRIPOS>SUBSTRUCTURE
       1 MOL1            1 RESIDUE      1      MOL     
@<SCITEGIC>MOL_PROPERTY
VM2 Rank
SciTegic.value.IntegerValue
67

@<SCITEGIC>MOL_PROPERTY
Conf_Id
SciTegic.value.IntegerValue
174

@<SCITEGIC>MOL_PROPERTY
Probability
SciTegic.value.DoubleValue
0.02

@<SCITEGIC>MOL_PROPERTY
Sum Probability
SciTegic.value.DoubleValue
99.89

@<SCITEGIC>MOL_PROPERTY
Delta G
SciTegic.value.DoubleValue
3.878

@<SCITEGIC>MOL_PROPERTY
G
SciTegic.value.DoubleValue
41.794

@<SCITEGIC>MOL_PROPERTY
E
SciTegic.value.DoubleValue
13.899

@<SCITEGIC>MOL_PROPERTY
-TS
SciTegic.value.DoubleValue
27.895

@<SCITEGIC>MOL_PROPERTY
U+W
SciTegic.value.DoubleValue
-4.880

@<SCITEGIC>MOL_PROPERTY
U
SciTegic.value.DoubleValue
51.036

@<SCITEGIC>MOL_PROPERTY
W
SciTegic.value.DoubleValue
-55.916

@<SCITEGIC>MOL_PROPERTY
W(PB)
SciTegic.value.DoubleValue
-57.975

@<SCITEGIC>MOL_PROPERTY
W(SA)
SciTegic.value.DoubleValue
2.059

@<SCITEGIC>MOL_PROPERTY
Valence
SciTegic.value.DoubleValue
5.117

@<SCITEGIC>MOL_PROPERTY
Coulomb
SciTegic.value.DoubleValue
45.321

@<SCITEGIC>MOL_PROPERTY
VdW
SciTegic.value.DoubleValue
0.598

@<SCITEGIC>MOL_PROPERTY
VdW6
SciTegic.value.DoubleValue
-6.707

@<SCITEGIC>MOL_PROPERTY
VdW12
SciTegic.value.DoubleValue
7.304

@<SCITEGIC>MOL_PROPERTY
Bond
SciTegic.value.DoubleValue
0.233

@<SCITEGIC>MOL_PROPERTY
Angle
SciTegic.value.DoubleValue
1.409

@<SCITEGIC>MOL_PROPERTY
Pdih
SciTegic.value.DoubleValue
3.475

@<SCITEGIC>MOL_PROPERTY
Idih
SciTegic.value.DoubleValue
0.000

@<SCITEGIC>MOL_PROPERTY
Tether
SciTegic.value.DoubleValue
0.000

@<TRIPOS>MOLECULE
guest-2_vm2.mol2 : vm2 ligand conformer 68
          23          22           1
SMALL
USER_CHARGES
 
@<TRIPOS>ATOM
       1    N1      18.815693   18.009415   24.657493 N.4        1 MOL1        -0.5940
       2    H1      18.406604   18.506390   25.455185 H          1 MOL1         0.3649
       3    H2      18.760622   17.007491   24.869525 H          1 MOL1         0.3649
       4    H3      18.210000   18.182403   23.849841 H          1 MOL1         0.3649
       5    C1      20.241277   18.452140   24.391939 C.3        1 MOL1         0.0207
       6    H4      20.638131   17.861997   23.563046 H          1 MOL1         0.0950
       7    H5      20.831640   18.218076   25.281991 H          1 MOL1         0.0950
       8    C2      20.373770   19.954187   24.075443 C.3        1 MOL1        -0.1415
       9    H6      20.040570   20.526537   24.951353 H          1 MOL1         0.0976
      10    H7      21.437721   20.193354   23.946814 H          1 MOL1         0.0976
      11    C3      19.586782   20.440526   22.829023 C.3        1 MOL1        -0.1375
      12    H8      19.703871   21.531899   22.777310 H          1 MOL1         0.0976
      13    H9      18.509728   20.270017   22.958224 H          1 MOL1         0.0976
      14    C4      20.070272   19.849494   21.478522 C.3        1 MOL1        -0.1375
      15    H10     19.856153   20.584116   20.689811 H          1 MOL1         0.0976
      16    H11     21.162189   19.728186   21.489619 H          1 MOL1         0.0976
      17    C5      19.386198   18.517087   21.087465 C.3        1 MOL1        -0.1350
      18    H12     18.295138   18.647829   21.084322 H          1 MOL1         0.0976
      19    H13     19.609696   17.734359   21.820833 H          1 MOL1         0.0976
      20    C6      19.842008   18.034152   19.694116 C.3        1 MOL1        -0.2365
      21    H14     20.926392   17.864466   19.670762 H          1 MOL1         0.0987
      22    H15     19.594613   18.771572   18.919372 H          1 MOL1         0.0987
      23    H16     19.347708   17.090225   19.430085 H          1 MOL1         0.0987
@<TRIPOS>BOND
    1     1     2    1
    2     1     3    1
    3     1     4    1
    4     1     5    1
    5     5     6    1
    6     5     7    1
    7     5     8    1
    8     8     9    1
    9     8    10    1
   10     8    11    1
   11    11    12    1
   12    11    13    1
   13    11    14    1
   14    14    15    1
   15    14    16    1
   16    14    17    1
   17    17    18    1
   18    17    19    1
   19    17    20    1
   20    20    21    1
   21    20    22    1
   22    20    23    1
@<TRIPOS>SUBSTRUCTURE
       1 MOL1            1 RESIDUE      1      MOL     
@<SCITEGIC>MOL_PROPERTY
VM2 Rank
SciTegic.value.IntegerValue
68

@<SCITEGIC>MOL_PROPERTY
Conf_Id
SciTegic.value.IntegerValue
318

@<SCITEGIC>MOL_PROPERTY
Probability
SciTegic.value.DoubleValue
0.02

@<SCITEGIC>MOL_PROPERTY
Sum Probability
SciTegic.value.DoubleValue
99.90

@<SCITEGIC>MOL_PROPERTY
Delta G
SciTegic.value.DoubleValue
3.925

@<SCITEGIC>MOL_PROPERTY
G
SciTegic.value.DoubleValue
41.842

@<SCITEGIC>MOL_PROPERTY
E
SciTegic.value.DoubleValue
13.822

@<SCITEGIC>MOL_PROPERTY
-TS
SciTegic.value.DoubleValue
28.020

@<SCITEGIC>MOL_PROPERTY
U+W
SciTegic.value.DoubleValue
-4.957

@<SCITEGIC>MOL_PROPERTY
U
SciTegic.value.DoubleValue
51.112

@<SCITEGIC>MOL_PROPERTY
W
SciTegic.value.DoubleValue
-56.069

@<SCITEGIC>MOL_PROPERTY
W(PB)
SciTegic.value.DoubleValue
-58.128

@<SCITEGIC>MOL_PROPERTY
W(SA)
SciTegic.value.DoubleValue
2.058

@<SCITEGIC>MOL_PROPERTY
Valence
SciTegic.value.DoubleValue
4.455

@<SCITEGIC>MOL_PROPERTY
Coulomb
SciTegic.value.DoubleValue
46.320

@<SCITEGIC>MOL_PROPERTY
VdW
SciTegic.value.DoubleValue
0.337

@<SCITEGIC>MOL_PROPERTY
VdW6
SciTegic.value.DoubleValue
-7.022

@<SCITEGIC>MOL_PROPERTY
VdW12
SciTegic.value.DoubleValue
7.359

@<SCITEGIC>MOL_PROPERTY
Bond
SciTegic.value.DoubleValue
0.222

@<SCITEGIC>MOL_PROPERTY
Angle
SciTegic.value.DoubleValue
1.454

@<SCITEGIC>MOL_PROPERTY
Pdih
SciTegic.value.DoubleValue
2.779

@<SCITEGIC>MOL_PROPERTY
Idih
SciTegic.value.DoubleValue
0.000

@<SCITEGIC>MOL_PROPERTY
Tether
SciTegic.value.DoubleValue
0.000

@<TRIPOS>MOLECULE
guest-2_vm2.mol2 : vm2 ligand conformer 69
          23          22           1
SMALL
USER_CHARGES
 
@<TRIPOS>ATOM
       1    N1      20.055859   17.778533   25.251328 N.4        1 MOL1        -0.5940
       2    H1      20.339844   18.353402   26.051108 H          1 MOL1         0.3649
       3    H2      20.902393   17.330852   24.886109 H          1 MOL1         0.3649
       4    H3      19.457855   17.031120   25.619676 H          1 MOL1         0.3649
       5    C1      19.345682   18.596835   24.192241 C.3        1 MOL1         0.0207
       6    H4      18.443066   19.020209   24.640991 H          1 MOL1         0.0950
       7    H5      19.044543   17.919062   23.389323 H          1 MOL1         0.0950
       8    C2      20.217738   19.728908   23.617491 C.3        1 MOL1        -0.1415
       9    H6      20.532897   20.387574   24.437608 H          1 MOL1         0.0976
      10    H7      21.138908   19.317218   23.187641 H          1 MOL1         0.0976
      11    C3      19.473671   20.576269   22.558061 C.3        1 MOL1        -0.1375
      12    H8      20.144393   21.371152   22.203840 H          1 MOL1         0.0976
      13    H9      18.635075   21.090208   23.048054 H          1 MOL1         0.0976
      14    C4      18.923097   19.794961   21.334223 C.3        1 MOL1        -0.1375
      15    H10     18.174995   19.055252   21.649302 H          1 MOL1         0.0976
      16    H11     18.373538   20.514449   20.711494 H          1 MOL1         0.0976
      17    C5      20.002575   19.126528   20.443606 C.3        1 MOL1        -0.1350
      18    H12     20.929281   19.716880   20.458304 H          1 MOL1         0.0976
      19    H13     19.650852   19.144028   19.402473 H          1 MOL1         0.0976
      20    C6      20.297378   17.654965   20.817051 C.3        1 MOL1        -0.2365
      21    H14     20.732122   17.560992   21.817366 H          1 MOL1         0.0987
      22    H15     21.010636   17.216523   20.107181 H          1 MOL1         0.0987
      23    H16     19.382237   17.049675   20.784549 H          1 MOL1         0.0987
@<TRIPOS>BOND
    1     1     2    1
    2     1     3    1
    3     1     4    1
    4     1     5    1
    5     5     6    1
    6     5     7    1
    7     5     8    1
    8     8     9    1
    9     8    10    1
   10     8    11    1
   11    11    12    1
   12    11    13    1
   13    11    14    1
   14    14    15    1
   15    14    16    1
   16    14    17    1
   17    17    18    1
   18    17    19    1
   19    17    20    1
   20    20    21    1
   21    20    22    1
   22    20    23    1
@<TRIPOS>SUBSTRUCTURE
       1 MOL1            1 RESIDUE      1      MOL     
@<SCITEGIC>MOL_PROPERTY
VM2 Rank
SciTegic.value.IntegerValue
69

@<SCITEGIC>MOL_PROPERTY
Conf_Id
SciTegic.value.IntegerValue
943

@<SCITEGIC>MOL_PROPERTY
Probability
SciTegic.value.DoubleValue
0.02

@<SCITEGIC>MOL_PROPERTY
Sum Probability
SciTegic.value.DoubleValue
99.92

@<SCITEGIC>MOL_PROPERTY
Delta G
SciTegic.value.DoubleValue
3.976

@<SCITEGIC>MOL_PROPERTY
G
SciTegic.value.DoubleValue
41.892

@<SCITEGIC>MOL_PROPERTY
E
SciTegic.value.DoubleValue
13.664

@<SCITEGIC>MOL_PROPERTY
-TS
SciTegic.value.DoubleValue
28.228

@<SCITEGIC>MOL_PROPERTY
U+W
SciTegic.value.DoubleValue
-5.115

@<SCITEGIC>MOL_PROPERTY
U
SciTegic.value.DoubleValue
51.053

@<SCITEGIC>MOL_PROPERTY
W
SciTegic.value.DoubleValue
-56.168

@<SCITEGIC>MOL_PROPERTY
W(PB)
SciTegic.value.DoubleValue
-58.205

@<SCITEGIC>MOL_PROPERTY
W(SA)
SciTegic.value.DoubleValue
2.037

@<SCITEGIC>MOL_PROPERTY
Valence
SciTegic.value.DoubleValue
5.021

@<SCITEGIC>MOL_PROPERTY
Coulomb
SciTegic.value.DoubleValue
45.787

@<SCITEGIC>MOL_PROPERTY
VdW
SciTegic.value.DoubleValue
0.245

@<SCITEGIC>MOL_PROPERTY
VdW6
SciTegic.value.DoubleValue
-7.353

@<SCITEGIC>MOL_PROPERTY
VdW12
SciTegic.value.DoubleValue
7.597

@<SCITEGIC>MOL_PROPERTY
Bond
SciTegic.value.DoubleValue
0.229

@<SCITEGIC>MOL_PROPERTY
Angle
SciTegic.value.DoubleValue
1.630

@<SCITEGIC>MOL_PROPERTY
Pdih
SciTegic.value.DoubleValue
3.162

@<SCITEGIC>MOL_PROPERTY
Idih
SciTegic.value.DoubleValue
0.000

@<SCITEGIC>MOL_PROPERTY
Tether
SciTegic.value.DoubleValue
0.000

@<TRIPOS>MOLECULE
guest-2_vm2.mol2 : vm2 ligand conformer 70
          23          22           1
SMALL
USER_CHARGES
 
@<TRIPOS>ATOM
       1    N1      20.236591   17.853696   25.259505 N.4        1 MOL1        -0.5940
       2    H1      19.568359   18.032571   26.015972 H          1 MOL1         0.3649
       3    H2      21.156990   17.737726   25.696919 H          1 MOL1         0.3649
       4    H3      19.987393   16.950347   24.844436 H          1 MOL1         0.3649
       5    C1      20.237980   18.967921   24.232795 C.3        1 MOL1         0.0207
       6    H4      20.991385   18.728714   23.477878 H          1 MOL1         0.0950
       7    H5      20.537223   19.891143   24.736235 H          1 MOL1         0.0950
       8    C2      18.868887   19.167898   23.556038 C.3        1 MOL1        -0.1415
       9    H6      18.546918   18.239183   23.069582 H          1 MOL1         0.0976
      10    H7      18.117823   19.383094   24.327630 H          1 MOL1         0.0976
      11    C3      18.873478   20.326658   22.530708 C.3        1 MOL1        -0.1375
      12    H8      19.060326   21.267138   23.067414 H          1 MOL1         0.0976
      13    H9      17.867364   20.424050   22.100094 H          1 MOL1         0.0976
      14    C4      19.908004   20.204683   21.379086 C.3        1 MOL1        -0.1375
      15    H10     19.832656   21.121417   20.777927 H          1 MOL1         0.0976
      16    H11     20.932411   20.202346   21.774920 H          1 MOL1         0.0976
      17    C5      19.692591   18.997546   20.429512 C.3        1 MOL1        -0.1350
      18    H12     20.007922   19.292439   19.418781 H          1 MOL1         0.0976
      19    H13     18.622981   18.757498   20.353176 H          1 MOL1         0.0976
      20    C6      20.498468   17.738599   20.826356 C.3        1 MOL1        -0.2365
      21    H14     21.571903   17.960528   20.884676 H          1 MOL1         0.0987
      22    H15     20.363400   16.947230   20.077771 H          1 MOL1         0.0987
      23    H16     20.182068   17.332201   21.792375 H          1 MOL1         0.0987
@<TRIPOS>BOND
    1     1     2    1
    2     1     3    1
    3     1     4    1
    4     1     5    1
    5     5     6    1
    6     5     7    1
    7     5     8    1
    8     8     9    1
    9     8    10    1
   10     8    11    1
   11    11    12    1
   12    11    13    1
   13    11    14    1
   14    14    15    1
   15    14    16    1
   16    14    17    1
   17    17    18    1
   18    17    19    1
   19    17    20    1
   20    20    21    1
   21    20    22    1
   22    20    23    1
@<TRIPOS>SUBSTRUCTURE
       1 MOL1            1 RESIDUE      1      MOL     
@<SCITEGIC>MOL_PROPERTY
VM2 Rank
SciTegic.value.IntegerValue
70

@<SCITEGIC>MOL_PROPERTY
Conf_Id
SciTegic.value.IntegerValue
760

@<SCITEGIC>MOL_PROPERTY
Probability
SciTegic.value.DoubleValue
0.01

@<SCITEGIC>MOL_PROPERTY
Sum Probability
SciTegic.value.DoubleValue
99.93

@<SCITEGIC>MOL_PROPERTY
Delta G
SciTegic.value.DoubleValue
4.047

@<SCITEGIC>MOL_PROPERTY
G
SciTegic.value.DoubleValue
41.964

@<SCITEGIC>MOL_PROPERTY
E
SciTegic.value.DoubleValue
13.735

@<SCITEGIC>MOL_PROPERTY
-TS
SciTegic.value.DoubleValue
28.229

@<SCITEGIC>MOL_PROPERTY
U+W
SciTegic.value.DoubleValue
-5.044

@<SCITEGIC>MOL_PROPERTY
U
SciTegic.value.DoubleValue
51.053

@<SCITEGIC>MOL_PROPERTY
W
SciTegic.value.DoubleValue
-56.097

@<SCITEGIC>MOL_PROPERTY
W(PB)
SciTegic.value.DoubleValue
-58.132

@<SCITEGIC>MOL_PROPERTY
W(SA)
SciTegic.value.DoubleValue
2.034

@<SCITEGIC>MOL_PROPERTY
Valence
SciTegic.value.DoubleValue
5.021

@<SCITEGIC>MOL_PROPERTY
Coulomb
SciTegic.value.DoubleValue
45.788

@<SCITEGIC>MOL_PROPERTY
VdW
SciTegic.value.DoubleValue
0.245

@<SCITEGIC>MOL_PROPERTY
VdW6
SciTegic.value.DoubleValue
-7.353

@<SCITEGIC>MOL_PROPERTY
VdW12
SciTegic.value.DoubleValue
7.598

@<SCITEGIC>MOL_PROPERTY
Bond
SciTegic.value.DoubleValue
0.229

@<SCITEGIC>MOL_PROPERTY
Angle
SciTegic.value.DoubleValue
1.631

@<SCITEGIC>MOL_PROPERTY
Pdih
SciTegic.value.DoubleValue
3.161

@<SCITEGIC>MOL_PROPERTY
Idih
SciTegic.value.DoubleValue
0.000

@<SCITEGIC>MOL_PROPERTY
Tether
SciTegic.value.DoubleValue
0.000

@<TRIPOS>MOLECULE
guest-2_vm2.mol2 : vm2 ligand conformer 71
          23          22           1
SMALL
USER_CHARGES
 
@<TRIPOS>ATOM
       1    N1      19.125004   18.915950   25.464743 N.4        1 MOL1        -0.5940
       2    H1      18.574526   18.292441   26.064730 H          1 MOL1         0.3649
       3    H2      18.471965   19.587416   25.049719 H          1 MOL1         0.3649
       4    H3      19.753866   19.443576   26.078451 H          1 MOL1         0.3649
       5    C1      19.887318   18.148035   24.402910 C.3        1 MOL1         0.0207
       6    H4      19.164283   17.587686   23.805225 H          1 MOL1         0.0950
       7    H5      20.532415   17.427800   24.913421 H          1 MOL1         0.0950
       8    C2      20.747753   19.041328   23.485269 C.3        1 MOL1        -0.1415
       9    H6      21.503967   19.550282   24.097429 H          1 MOL1         0.0976
      10    H7      21.306149   18.397045   22.797810 H          1 MOL1         0.0976
      11    C3      19.942070   20.106598   22.692430 C.3        1 MOL1        -0.1375
      12    H8      20.635556   20.740822   22.123405 H          1 MOL1         0.0976
      13    H9      19.458814   20.781234   23.411546 H          1 MOL1         0.0976
      14    C4      18.854431   19.541602   21.737437 C.3        1 MOL1        -0.1375
      15    H10     18.404117   18.629225   22.147930 H          1 MOL1         0.0976
      16    H11     18.035973   20.273160   21.689365 H          1 MOL1         0.0976
      17    C5      19.327996   19.287479   20.283424 C.3        1 MOL1        -0.1350
      18    H12     19.677036   20.229448   19.837798 H          1 MOL1         0.0976
      19    H13     18.459891   18.973465   19.687085 H          1 MOL1         0.0976
      20    C6      20.431427   18.216008   20.147787 C.3        1 MOL1        -0.2365
      21    H14     20.155347   17.292245   20.672497 H          1 MOL1         0.0987
      22    H15     21.386735   18.576099   20.547875 H          1 MOL1         0.0987
      23    H16     20.594922   17.966532   19.091419 H          1 MOL1         0.0987
@<TRIPOS>BOND
    1     1     2    1
    2     1     3    1
    3     1     4    1
    4     1     5    1
    5     5     6    1
    6     5     7    1
    7     5     8    1
    8     8     9    1
    9     8    10    1
   10     8    11    1
   11    11    12    1
   12    11    13    1
   13    11    14    1
   14    14    15    1
   15    14    16    1
   16    14    17    1
   17    17    18    1
   18    17    19    1
   19    17    20    1
   20    20    21    1
   21    20    22    1
   22    20    23    1
@<TRIPOS>SUBSTRUCTURE
       1 MOL1            1 RESIDUE      1      MOL     
@<SCITEGIC>MOL_PROPERTY
VM2 Rank
SciTegic.value.IntegerValue
71

@<SCITEGIC>MOL_PROPERTY
Conf_Id
SciTegic.value.IntegerValue
546

@<SCITEGIC>MOL_PROPERTY
Probability
SciTegic.value.DoubleValue
0.01

@<SCITEGIC>MOL_PROPERTY
Sum Probability
SciTegic.value.DoubleValue
99.94

@<SCITEGIC>MOL_PROPERTY
Delta G
SciTegic.value.DoubleValue
4.130

@<SCITEGIC>MOL_PROPERTY
G
SciTegic.value.DoubleValue
42.047

@<SCITEGIC>MOL_PROPERTY
E
SciTegic.value.DoubleValue
14.151

@<SCITEGIC>MOL_PROPERTY
-TS
SciTegic.value.DoubleValue
27.895

@<SCITEGIC>MOL_PROPERTY
U+W
SciTegic.value.DoubleValue
-4.628

@<SCITEGIC>MOL_PROPERTY
U
SciTegic.value.DoubleValue
51.455

@<SCITEGIC>MOL_PROPERTY
W
SciTegic.value.DoubleValue
-56.082

@<SCITEGIC>MOL_PROPERTY
W(PB)
SciTegic.value.DoubleValue
-58.110

@<SCITEGIC>MOL_PROPERTY
W(SA)
SciTegic.value.DoubleValue
2.028

@<SCITEGIC>MOL_PROPERTY
Valence
SciTegic.value.DoubleValue
5.238

@<SCITEGIC>MOL_PROPERTY
Coulomb
SciTegic.value.DoubleValue
45.552

@<SCITEGIC>MOL_PROPERTY
VdW
SciTegic.value.DoubleValue
0.665

@<SCITEGIC>MOL_PROPERTY
VdW6
SciTegic.value.DoubleValue
-7.395

@<SCITEGIC>MOL_PROPERTY
VdW12
SciTegic.value.DoubleValue
8.059

@<SCITEGIC>MOL_PROPERTY
Bond
SciTegic.value.DoubleValue
0.274

@<SCITEGIC>MOL_PROPERTY
Angle
SciTegic.value.DoubleValue
1.687

@<SCITEGIC>MOL_PROPERTY
Pdih
SciTegic.value.DoubleValue
3.277

@<SCITEGIC>MOL_PROPERTY
Idih
SciTegic.value.DoubleValue
0.000

@<SCITEGIC>MOL_PROPERTY
Tether
SciTegic.value.DoubleValue
0.000

@<TRIPOS>MOLECULE
guest-2_vm2.mol2 : vm2 ligand conformer 72
          23          22           1
SMALL
USER_CHARGES
 
@<TRIPOS>ATOM
       1    N1      20.070178   19.307312   25.506882 N.4        1 MOL1        -0.5940
       2    H1      20.087923   20.256667   25.122196 H          1 MOL1         0.3649
       3    H2      20.851674   19.235593   26.167106 H          1 MOL1         0.3649
       4    H3      19.207649   19.217097   26.053139 H          1 MOL1         0.3649
       5    C1      20.157396   18.259734   24.414511 C.3        1 MOL1         0.0207
       6    H4      20.172423   17.278427   24.896504 H          1 MOL1         0.0950
       7    H5      21.108045   18.392836   23.892448 H          1 MOL1         0.0950
       8    C2      18.991630   18.313584   23.405320 C.3        1 MOL1        -0.1415
       9    H6      19.106452   17.485647   22.697628 H          1 MOL1         0.0976
      10    H7      18.052827   18.119923   23.940835 H          1 MOL1         0.0976
      11    C3      18.867493   19.661530   22.643634 C.3        1 MOL1        -0.1375
      12    H8      18.675134   20.456691   23.376107 H          1 MOL1         0.0976
      13    H9      17.975712   19.638482   22.002425 H          1 MOL1         0.0976
      14    C4      20.105874   20.061271   21.794622 C.3        1 MOL1        -0.1375
      15    H10     20.168068   21.158277   21.786191 H          1 MOL1         0.0976
      16    H11     21.035431   19.721786   22.268320 H          1 MOL1         0.0976
      17    C5      20.065626   19.593180   20.317370 C.3        1 MOL1        -0.1350
      18    H12     20.944318   20.003931   19.800635 H          1 MOL1         0.0976
      19    H13     19.189066   20.026227   19.815544 H          1 MOL1         0.0976
      20    C6      20.057803   18.060388   20.131661 C.3        1 MOL1        -0.2365
      21    H14     20.201919   17.802165   19.074574 H          1 MOL1         0.0987
      22    H15     19.100307   17.626850   20.444052 H          1 MOL1         0.0987
      23    H16     20.863727   17.586056   20.706443 H          1 MOL1         0.0987
@<TRIPOS>BOND
    1     1     2    1
    2     1     3    1
    3     1     4    1
    4     1     5    1
    5     5     6    1
    6     5     7    1
    7     5     8    1
    8     8     9    1
    9     8    10    1
   10     8    11    1
   11    11    12    1
   12    11    13    1
   13    11    14    1
   14    14    15    1
   15    14    16    1
   16    14    17    1
   17    17    18    1
   18    17    19    1
   19    17    20    1
   20    20    21    1
   21    20    22    1
   22    20    23    1
@<TRIPOS>SUBSTRUCTURE
       1 MOL1            1 RESIDUE      1      MOL     
@<SCITEGIC>MOL_PROPERTY
VM2 Rank
SciTegic.value.IntegerValue
72

@<SCITEGIC>MOL_PROPERTY
Conf_Id
SciTegic.value.IntegerValue
734

@<SCITEGIC>MOL_PROPERTY
Probability
SciTegic.value.DoubleValue
0.01

@<SCITEGIC>MOL_PROPERTY
Sum Probability
SciTegic.value.DoubleValue
99.95

@<SCITEGIC>MOL_PROPERTY
Delta G
SciTegic.value.DoubleValue
4.173

@<SCITEGIC>MOL_PROPERTY
G
SciTegic.value.DoubleValue
42.089

@<SCITEGIC>MOL_PROPERTY
E
SciTegic.value.DoubleValue
14.196

@<SCITEGIC>MOL_PROPERTY
-TS
SciTegic.value.DoubleValue
27.893

@<SCITEGIC>MOL_PROPERTY
U+W
SciTegic.value.DoubleValue
-4.583

@<SCITEGIC>MOL_PROPERTY
U
SciTegic.value.DoubleValue
51.456

@<SCITEGIC>MOL_PROPERTY
W
SciTegic.value.DoubleValue
-56.039

@<SCITEGIC>MOL_PROPERTY
W(PB)
SciTegic.value.DoubleValue
-58.075

@<SCITEGIC>MOL_PROPERTY
W(SA)
SciTegic.value.DoubleValue
2.036

@<SCITEGIC>MOL_PROPERTY
Valence
SciTegic.value.DoubleValue
5.238

@<SCITEGIC>MOL_PROPERTY
Coulomb
SciTegic.value.DoubleValue
45.553

@<SCITEGIC>MOL_PROPERTY
VdW
SciTegic.value.DoubleValue
0.665

@<SCITEGIC>MOL_PROPERTY
VdW6
SciTegic.value.DoubleValue
-7.396

@<SCITEGIC>MOL_PROPERTY
VdW12
SciTegic.value.DoubleValue
8.061

@<SCITEGIC>MOL_PROPERTY
Bond
SciTegic.value.DoubleValue
0.274

@<SCITEGIC>MOL_PROPERTY
Angle
SciTegic.value.DoubleValue
1.690

@<SCITEGIC>MOL_PROPERTY
Pdih
SciTegic.value.DoubleValue
3.274

@<SCITEGIC>MOL_PROPERTY
Idih
SciTegic.value.DoubleValue
0.000

@<SCITEGIC>MOL_PROPERTY
Tether
SciTegic.value.DoubleValue
0.000

@<TRIPOS>MOLECULE
guest-2_vm2.mol2 : vm2 ligand conformer 73
          23          22           1
SMALL
USER_CHARGES
 
@<TRIPOS>ATOM
       1    N1      20.375150   18.520263   25.207846 N.4        1 MOL1        -0.5940
       2    H1      20.865618   17.711238   25.603597 H          1 MOL1         0.3649
       3    H2      19.864549   18.966097   25.976591 H          1 MOL1         0.3649
       4    H3      21.090803   19.183117   24.894925 H          1 MOL1         0.3649
       5    C1      19.450326   18.120501   24.075195 C.3        1 MOL1         0.0207
       6    H4      18.734828   17.393994   24.469801 H          1 MOL1         0.0950
       7    H5      20.050049   17.624913   23.307478 H          1 MOL1         0.0950
       8    C2      18.686183   19.306916   23.453267 C.3        1 MOL1        -0.1415
       9    H6      17.979054   18.931058   22.703966 H          1 MOL1         0.0976
      10    H7      18.070383   19.780625   24.229179 H          1 MOL1         0.0976
      11    C3      19.603694   20.377821   22.810906 C.3        1 MOL1        -0.1375
      12    H8      20.180149   20.873207   23.603669 H          1 MOL1         0.0976
      13    H9      18.974648   21.164330   22.371824 H          1 MOL1         0.0976
      14    C4      20.592921   19.860822   21.731278 C.3        1 MOL1        -0.1375
      15    H10     21.221937   20.711838   21.435377 H          1 MOL1         0.0976
      16    H11     21.286012   19.123463   22.157539 H          1 MOL1         0.0976
      17    C5      19.927994   19.298285   20.448020 C.3        1 MOL1        -0.1350
      18    H12     20.590594   19.507556   19.596475 H          1 MOL1         0.0976
      19    H13     18.990517   19.831743   20.238155 H          1 MOL1         0.0976
      20    C6      19.679732   17.772393   20.487488 C.3        1 MOL1        -0.2365
      21    H14     19.289008   17.424469   19.522511 H          1 MOL1         0.0987
      22    H15     18.951149   17.491416   21.254751 H          1 MOL1         0.0987
      23    H16     20.611517   17.226603   20.684458 H          1 MOL1         0.0987
@<TRIPOS>BOND
    1     1     2    1
    2     1     3    1
    3     1     4    1
    4     1     5    1
    5     5     6    1
    6     5     7    1
    7     5     8    1
    8     8     9    1
    9     8    10    1
   10     8    11    1
   11    11    12    1
   12    11    13    1
   13    11    14    1
   14    14    15    1
   15    14    16    1
   16    14    17    1
   17    17    18    1
   18    17    19    1
   19    17    20    1
   20    20    21    1
   21    20    22    1
   22    20    23    1
@<TRIPOS>SUBSTRUCTURE
       1 MOL1            1 RESIDUE      1      MOL     
@<SCITEGIC>MOL_PROPERTY
VM2 Rank
SciTegic.value.IntegerValue
73

@<SCITEGIC>MOL_PROPERTY
Conf_Id
SciTegic.value.IntegerValue
574

@<SCITEGIC>MOL_PROPERTY
Probability
SciTegic.value.DoubleValue
0.01

@<SCITEGIC>MOL_PROPERTY
Sum Probability
SciTegic.value.DoubleValue
99.96

@<SCITEGIC>MOL_PROPERTY
Delta G
SciTegic.value.DoubleValue
4.279

@<SCITEGIC>MOL_PROPERTY
G
SciTegic.value.DoubleValue
42.195

@<SCITEGIC>MOL_PROPERTY
E
SciTegic.value.DoubleValue
13.814

@<SCITEGIC>MOL_PROPERTY
-TS
SciTegic.value.DoubleValue
28.381

@<SCITEGIC>MOL_PROPERTY
U+W
SciTegic.value.DoubleValue
-4.966

@<SCITEGIC>MOL_PROPERTY
U
SciTegic.value.DoubleValue
51.195

@<SCITEGIC>MOL_PROPERTY
W
SciTegic.value.DoubleValue
-56.160

@<SCITEGIC>MOL_PROPERTY
W(PB)
SciTegic.value.DoubleValue
-58.178

@<SCITEGIC>MOL_PROPERTY
W(SA)
SciTegic.value.DoubleValue
2.018

@<SCITEGIC>MOL_PROPERTY
Valence
SciTegic.value.DoubleValue
5.115

@<SCITEGIC>MOL_PROPERTY
Coulomb
SciTegic.value.DoubleValue
45.778

@<SCITEGIC>MOL_PROPERTY
VdW
SciTegic.value.DoubleValue
0.302

@<SCITEGIC>MOL_PROPERTY
VdW6
SciTegic.value.DoubleValue
-7.950

@<SCITEGIC>MOL_PROPERTY
VdW12
SciTegic.value.DoubleValue
8.252

@<SCITEGIC>MOL_PROPERTY
Bond
SciTegic.value.DoubleValue
0.252

@<SCITEGIC>MOL_PROPERTY
Angle
SciTegic.value.DoubleValue
1.730

@<SCITEGIC>MOL_PROPERTY
Pdih
SciTegic.value.DoubleValue
3.133

@<SCITEGIC>MOL_PROPERTY
Idih
SciTegic.value.DoubleValue
0.000

@<SCITEGIC>MOL_PROPERTY
Tether
SciTegic.value.DoubleValue
0.000

@<TRIPOS>MOLECULE
guest-2_vm2.mol2 : vm2 ligand conformer 74
          23          22           1
SMALL
USER_CHARGES
 
@<TRIPOS>ATOM
       1    N1      20.134507   17.627639   24.254295 N.4        1 MOL1        -0.5940
       2    H1      20.589635   17.692962   23.339158 H          1 MOL1         0.3649
       3    H2      19.307842   17.032416   24.140796 H          1 MOL1         0.3649
       4    H3      20.776508   17.129939   24.880646 H          1 MOL1         0.3649
       5    C1      19.769320   18.996046   24.795588 C.3        1 MOL1         0.0207
       6    H4      20.691479   19.551786   24.985416 H          1 MOL1         0.0950
       7    H5      19.266682   18.836958   25.753467 H          1 MOL1         0.0950
       8    C2      18.846458   19.818262   23.871863 C.3        1 MOL1        -0.1415
       9    H6      18.046411   19.182904   23.471304 H          1 MOL1         0.0976
      10    H7      18.341747   20.570820   24.492104 H          1 MOL1         0.0976
      11    C3      19.584837   20.568239   22.730517 C.3        1 MOL1        -0.1375
      12    H8      20.299112   21.273677   23.177229 H          1 MOL1         0.0976
      13    H9      18.855221   21.186570   22.189583 H          1 MOL1         0.0976
      14    C4      20.340193   19.683020   21.706611 C.3        1 MOL1        -0.1375
      15    H10     20.824564   20.344067   20.974531 H          1 MOL1         0.0976
      16    H11     21.158235   19.146213   22.202335 H          1 MOL1         0.0976
      17    C5      19.425092   18.692726   20.947657 C.3        1 MOL1        -0.1350
      18    H12     18.623915   19.247846   20.439920 H          1 MOL1         0.0976
      19    H13     18.934409   18.004985   21.647822 H          1 MOL1         0.0976
      20    C6      20.215594   17.871069   19.907469 C.3        1 MOL1        -0.2365
      21    H14     19.551388   17.177171   19.376034 H          1 MOL1         0.0987
      22    H15     21.006138   17.279523   20.387119 H          1 MOL1         0.0987
      23    H16     20.684218   18.525609   19.160985 H          1 MOL1         0.0987
@<TRIPOS>BOND
    1     1     2    1
    2     1     3    1
    3     1     4    1
    4     1     5    1
    5     5     6    1
    6     5     7    1
    7     5     8    1
    8     8     9    1
    9     8    10    1
   10     8    11    1
   11    11    12    1
   12    11    13    1
   13    11    14    1
   14    14    15    1
   15    14    16    1
   16    14    17    1
   17    17    18    1
   18    17    19    1
   19    17    20    1
   20    20    21    1
   21    20    22    1
   22    20    23    1
@<TRIPOS>SUBSTRUCTURE
       1 MOL1            1 RESIDUE      1      MOL     
@<SCITEGIC>MOL_PROPERTY
VM2 Rank
SciTegic.value.IntegerValue
74

@<SCITEGIC>MOL_PROPERTY
Conf_Id
SciTegic.value.IntegerValue
483

@<SCITEGIC>MOL_PROPERTY
Probability
SciTegic.value.DoubleValue
0.01

@<SCITEGIC>MOL_PROPERTY
Sum Probability
SciTegic.value.DoubleValue
99.97

@<SCITEGIC>MOL_PROPERTY
Delta G
SciTegic.value.DoubleValue
4.444

@<SCITEGIC>MOL_PROPERTY
G
SciTegic.value.DoubleValue
42.360

@<SCITEGIC>MOL_PROPERTY
E
SciTegic.value.DoubleValue
14.084

@<SCITEGIC>MOL_PROPERTY
-TS
SciTegic.value.DoubleValue
28.276

@<SCITEGIC>MOL_PROPERTY
U+W
SciTegic.value.DoubleValue
-4.695

@<SCITEGIC>MOL_PROPERTY
U
SciTegic.value.DoubleValue
50.876

@<SCITEGIC>MOL_PROPERTY
W
SciTegic.value.DoubleValue
-55.571

@<SCITEGIC>MOL_PROPERTY
W(PB)
SciTegic.value.DoubleValue
-57.630

@<SCITEGIC>MOL_PROPERTY
W(SA)
SciTegic.value.DoubleValue
2.059

@<SCITEGIC>MOL_PROPERTY
Valence
SciTegic.value.DoubleValue
3.812

@<SCITEGIC>MOL_PROPERTY
Coulomb
SciTegic.value.DoubleValue
46.851

@<SCITEGIC>MOL_PROPERTY
VdW
SciTegic.value.DoubleValue
0.213

@<SCITEGIC>MOL_PROPERTY
VdW6
SciTegic.value.DoubleValue
-7.415

@<SCITEGIC>MOL_PROPERTY
VdW12
SciTegic.value.DoubleValue
7.628

@<SCITEGIC>MOL_PROPERTY
Bond
SciTegic.value.DoubleValue
0.215

@<SCITEGIC>MOL_PROPERTY
Angle
SciTegic.value.DoubleValue
1.471

@<SCITEGIC>MOL_PROPERTY
Pdih
SciTegic.value.DoubleValue
2.127

@<SCITEGIC>MOL_PROPERTY
Idih
SciTegic.value.DoubleValue
0.000

@<SCITEGIC>MOL_PROPERTY
Tether
SciTegic.value.DoubleValue
0.000

@<TRIPOS>MOLECULE
guest-2_vm2.mol2 : vm2 ligand conformer 75
          23          22           1
SMALL
USER_CHARGES
 
@<TRIPOS>ATOM
       1    N1      20.365645   17.723737   24.264628 N.4        1 MOL1        -0.5940
       2    H1      20.218731   16.897789   24.854892 H          1 MOL1         0.3649
       3    H2      21.376134   17.892798   24.235029 H          1 MOL1         0.3649
       4    H3      20.071050   17.477243   23.315237 H          1 MOL1         0.3649
       5    C1      19.611054   18.930103   24.788241 C.3        1 MOL1         0.0207
       6    H4      20.002047   19.142697   25.786946 H          1 MOL1         0.0950
       7    H5      18.555559   18.663103   24.887728 H          1 MOL1         0.0950
       8    C2      19.748466   20.193474   23.913030 C.3        1 MOL1        -0.1415
       9    H6      19.521818   21.061627   24.546053 H          1 MOL1         0.0976
      10    H7      20.790979   20.324610   23.596526 H          1 MOL1         0.0976
      11    C3      18.787794   20.236826   22.694192 C.3        1 MOL1        -0.1375
      12    H8      18.904311   21.207058   22.191843 H          1 MOL1         0.0976
      13    H9      17.752292   20.214534   23.061101 H          1 MOL1         0.0976
      14    C4      18.963605   19.110560   21.643872 C.3        1 MOL1        -0.1375
      15    H10     18.730850   18.136720   22.091711 H          1 MOL1         0.0976
      16    H11     18.212412   19.257700   20.855459 H          1 MOL1         0.0976
      17    C5      20.365964   19.084130   20.990578 C.3        1 MOL1        -0.1350
      18    H12     21.142983   18.923852   21.748562 H          1 MOL1         0.0976
      19    H13     20.574757   20.059283   20.528710 H          1 MOL1         0.0976
      20    C6      20.473471   17.978170   19.919459 C.3        1 MOL1        -0.2365
      21    H14     20.300123   16.985750   20.355353 H          1 MOL1         0.0987
      22    H15     21.472213   17.975931   19.463834 H          1 MOL1         0.0987
      23    H16     19.739031   18.132121   19.118105 H          1 MOL1         0.0987
@<TRIPOS>BOND
    1     1     2    1
    2     1     3    1
    3     1     4    1
    4     1     5    1
    5     5     6    1
    6     5     7    1
    7     5     8    1
    8     8     9    1
    9     8    10    1
   10     8    11    1
   11    11    12    1
   12    11    13    1
   13    11    14    1
   14    14    15    1
   15    14    16    1
   16    14    17    1
   17    17    18    1
   18    17    19    1
   19    17    20    1
   20    20    21    1
   21    20    22    1
   22    20    23    1
@<TRIPOS>SUBSTRUCTURE
       1 MOL1            1 RESIDUE      1      MOL     
@<SCITEGIC>MOL_PROPERTY
VM2 Rank
SciTegic.value.IntegerValue
75

@<SCITEGIC>MOL_PROPERTY
Conf_Id
SciTegic.value.IntegerValue
102

@<SCITEGIC>MOL_PROPERTY
Probability
SciTegic.value.DoubleValue
0.01

@<SCITEGIC>MOL_PROPERTY
Sum Probability
SciTegic.value.DoubleValue
99.98

@<SCITEGIC>MOL_PROPERTY
Delta G
SciTegic.value.DoubleValue
4.547

@<SCITEGIC>MOL_PROPERTY
G
SciTegic.value.DoubleValue
42.463

@<SCITEGIC>MOL_PROPERTY
E
SciTegic.value.DoubleValue
14.187

@<SCITEGIC>MOL_PROPERTY
-TS
SciTegic.value.DoubleValue
28.276

@<SCITEGIC>MOL_PROPERTY
U+W
SciTegic.value.DoubleValue
-4.592

@<SCITEGIC>MOL_PROPERTY
U
SciTegic.value.DoubleValue
50.877

@<SCITEGIC>MOL_PROPERTY
W
SciTegic.value.DoubleValue
-55.469

@<SCITEGIC>MOL_PROPERTY
W(PB)
SciTegic.value.DoubleValue
-57.491

@<SCITEGIC>MOL_PROPERTY
W(SA)
SciTegic.value.DoubleValue
2.022

@<SCITEGIC>MOL_PROPERTY
Valence
SciTegic.value.DoubleValue
3.812

@<SCITEGIC>MOL_PROPERTY
Coulomb
SciTegic.value.DoubleValue
46.852

@<SCITEGIC>MOL_PROPERTY
VdW
SciTegic.value.DoubleValue
0.213

@<SCITEGIC>MOL_PROPERTY
VdW6
SciTegic.value.DoubleValue
-7.416

@<SCITEGIC>MOL_PROPERTY
VdW12
SciTegic.value.DoubleValue
7.629

@<SCITEGIC>MOL_PROPERTY
Bond
SciTegic.value.DoubleValue
0.215

@<SCITEGIC>MOL_PROPERTY
Angle
SciTegic.value.DoubleValue
1.470

@<SCITEGIC>MOL_PROPERTY
Pdih
SciTegic.value.DoubleValue
2.127

@<SCITEGIC>MOL_PROPERTY
Idih
SciTegic.value.DoubleValue
0.000

@<SCITEGIC>MOL_PROPERTY
Tether
SciTegic.value.DoubleValue
0.000

@<TRIPOS>MOLECULE
guest-2_vm2.mol2 : vm2 ligand conformer 76
          23          22           1
SMALL
USER_CHARGES
 
@<TRIPOS>ATOM
       1    N1      19.499138   17.699674   24.762591 N.4        1 MOL1        -0.5940
       2    H1      18.783692   16.994882   24.970589 H          1 MOL1         0.3649
       3    H2      19.978832   17.906234   25.644582 H          1 MOL1         0.3649
       4    H3      20.184698   17.259794   24.141953 H          1 MOL1         0.3649
       5    C1      18.897439   18.947339   24.145306 C.3        1 MOL1         0.0207
       6    H4      18.165561   19.343426   24.854504 H          1 MOL1         0.0950
       7    H5      18.364995   18.653441   23.238916 H          1 MOL1         0.0950
       8    C2      19.937124   20.041027   23.824828 C.3        1 MOL1        -0.1415
       9    H6      19.416989   20.971054   23.560063 H          1 MOL1         0.0976
      10    H7      20.495990   20.261581   24.744013 H          1 MOL1         0.0976
      11    C3      20.940050   19.666956   22.700552 C.3        1 MOL1        -0.1375
      12    H8      21.241811   18.615087   22.778661 H          1 MOL1         0.0976
      13    H9      21.860038   20.243689   22.868661 H          1 MOL1         0.0976
      14    C4      20.453955   19.989568   21.261463 C.3        1 MOL1        -0.1375
      15    H10     20.258112   21.068095   21.186702 H          1 MOL1         0.0976
      16    H11     21.277869   19.789422   20.562648 H          1 MOL1         0.0976
      17    C5      19.199212   19.223009   20.775031 C.3        1 MOL1        -0.1350
      18    H12     18.956814   19.564819   19.759089 H          1 MOL1         0.0976
      19    H13     18.329334   19.486935   21.389580 H          1 MOL1         0.0976
      20    C6      19.389081   17.689427   20.744229 C.3        1 MOL1        -0.2365
      21    H14     18.500689   17.200530   20.324024 H          1 MOL1         0.0987
      22    H15     19.548119   17.279606   21.747998 H          1 MOL1         0.0987
      23    H16     20.249810   17.412587   20.121786 H          1 MOL1         0.0987
@<TRIPOS>BOND
    1     1     2    1
    2     1     3    1
    3     1     4    1
    4     1     5    1
    5     5     6    1
    6     5     7    1
    7     5     8    1
    8     8     9    1
    9     8    10    1
   10     8    11    1
   11    11    12    1
   12    11    13    1
   13    11    14    1
   14    14    15    1
   15    14    16    1
   16    14    17    1
   17    17    18    1
   18    17    19    1
   19    17    20    1
   20    20    21    1
   21    20    22    1
   22    20    23    1
@<TRIPOS>SUBSTRUCTURE
       1 MOL1            1 RESIDUE      1      MOL     
@<SCITEGIC>MOL_PROPERTY
VM2 Rank
SciTegic.value.IntegerValue
76

@<SCITEGIC>MOL_PROPERTY
Conf_Id
SciTegic.value.IntegerValue
296

@<SCITEGIC>MOL_PROPERTY
Probability
SciTegic.value.DoubleValue
0.01

@<SCITEGIC>MOL_PROPERTY
Sum Probability
SciTegic.value.DoubleValue
99.98

@<SCITEGIC>MOL_PROPERTY
Delta G
SciTegic.value.DoubleValue
4.550

@<SCITEGIC>MOL_PROPERTY
G
SciTegic.value.DoubleValue
42.466

@<SCITEGIC>MOL_PROPERTY
E
SciTegic.value.DoubleValue
13.890

@<SCITEGIC>MOL_PROPERTY
-TS
SciTegic.value.DoubleValue
28.576

@<SCITEGIC>MOL_PROPERTY
U+W
SciTegic.value.DoubleValue
-4.889

@<SCITEGIC>MOL_PROPERTY
U
SciTegic.value.DoubleValue
51.403

@<SCITEGIC>MOL_PROPERTY
W
SciTegic.value.DoubleValue
-56.291

@<SCITEGIC>MOL_PROPERTY
W(PB)
SciTegic.value.DoubleValue
-58.317

@<SCITEGIC>MOL_PROPERTY
W(SA)
SciTegic.value.DoubleValue
2.025

@<SCITEGIC>MOL_PROPERTY
Valence
SciTegic.value.DoubleValue
4.890

@<SCITEGIC>MOL_PROPERTY
Coulomb
SciTegic.value.DoubleValue
46.339

@<SCITEGIC>MOL_PROPERTY
VdW
SciTegic.value.DoubleValue
0.173

@<SCITEGIC>MOL_PROPERTY
VdW6
SciTegic.value.DoubleValue
-8.061

@<SCITEGIC>MOL_PROPERTY
VdW12
SciTegic.value.DoubleValue
8.235

@<SCITEGIC>MOL_PROPERTY
Bond
SciTegic.value.DoubleValue
0.255

@<SCITEGIC>MOL_PROPERTY
Angle
SciTegic.value.DoubleValue
1.788

@<SCITEGIC>MOL_PROPERTY
Pdih
SciTegic.value.DoubleValue
2.848

@<SCITEGIC>MOL_PROPERTY
Idih
SciTegic.value.DoubleValue
0.000

@<SCITEGIC>MOL_PROPERTY
Tether
SciTegic.value.DoubleValue
0.000

@<TRIPOS>MOLECULE
guest-2_vm2.mol2 : vm2 ligand conformer 77
          23          22           1
SMALL
USER_CHARGES
 
@<TRIPOS>ATOM
       1    N1      20.721246   18.208168   24.818309 N.4        1 MOL1        -0.5940
       2    H1      21.706282   18.210894   25.103882 H          1 MOL1         0.3649
       3    H2      20.599737   17.432476   24.160882 H          1 MOL1         0.3649
       4    H3      20.169834   17.985755   25.653269 H          1 MOL1         0.3649
       5    C1      20.308028   19.534235   24.209578 C.3        1 MOL1         0.0207
       6    H4      20.960158   19.733155   23.357185 H          1 MOL1         0.0950
       7    H5      20.486239   20.308980   24.960247 H          1 MOL1         0.0950
       8    C2      18.828760   19.579901   23.774278 C.3        1 MOL1        -0.1415
       9    H6      18.209035   19.310163   24.639761 H          1 MOL1         0.0976
      10    H7      18.555861   20.612772   23.520719 H          1 MOL1         0.0976
      11    C3      18.476892   18.642106   22.588311 C.3        1 MOL1        -0.1375
      12    H8      17.409777   18.392093   22.665885 H          1 MOL1         0.0976
      13    H9      19.003840   17.683932   22.676719 H          1 MOL1         0.0976
      14    C4      18.701228   19.260239   21.181567 C.3        1 MOL1        -0.1375
      15    H10     18.318953   18.558135   20.427808 H          1 MOL1         0.0976
      16    H11     18.080729   20.162057   21.087389 H          1 MOL1         0.0976
      17    C5      20.162376   19.623763   20.818935 C.3        1 MOL1        -0.1350
      18    H12     20.538302   20.406068   21.490273 H          1 MOL1         0.0976
      19    H13     20.169265   20.069297   19.814356 H          1 MOL1         0.0976
      20    C6      21.117469   18.408588   20.823021 C.3        1 MOL1        -0.2365
      21    H14     21.218171   17.974492   21.824129 H          1 MOL1         0.0987
      22    H15     22.119760   18.706394   20.489016 H          1 MOL1         0.0987
      23    H16     20.757724   17.623917   20.144933 H          1 MOL1         0.0987
@<TRIPOS>BOND
    1     1     2    1
    2     1     3    1
    3     1     4    1
    4     1     5    1
    5     5     6    1
    6     5     7    1
    7     5     8    1
    8     8     9    1
    9     8    10    1
   10     8    11    1
   11    11    12    1
   12    11    13    1
   13    11    14    1
   14    14    15    1
   15    14    16    1
   16    14    17    1
   17    17    18    1
   18    17    19    1
   19    17    20    1
   20    20    21    1
   21    20    22    1
   22    20    23    1
@<TRIPOS>SUBSTRUCTURE
       1 MOL1            1 RESIDUE      1      MOL     
@<SCITEGIC>MOL_PROPERTY
VM2 Rank
SciTegic.value.IntegerValue
77

@<SCITEGIC>MOL_PROPERTY
Conf_Id
SciTegic.value.IntegerValue
561

@<SCITEGIC>MOL_PROPERTY
Probability
SciTegic.value.DoubleValue
0.01

@<SCITEGIC>MOL_PROPERTY
Sum Probability
SciTegic.value.DoubleValue
99.99

@<SCITEGIC>MOL_PROPERTY
Delta G
SciTegic.value.DoubleValue
4.562

@<SCITEGIC>MOL_PROPERTY
G
SciTegic.value.DoubleValue
42.479

@<SCITEGIC>MOL_PROPERTY
E
SciTegic.value.DoubleValue
13.903

@<SCITEGIC>MOL_PROPERTY
-TS
SciTegic.value.DoubleValue
28.576

@<SCITEGIC>MOL_PROPERTY
U+W
SciTegic.value.DoubleValue
-4.877

@<SCITEGIC>MOL_PROPERTY
U
SciTegic.value.DoubleValue
51.403

@<SCITEGIC>MOL_PROPERTY
W
SciTegic.value.DoubleValue
-56.279

@<SCITEGIC>MOL_PROPERTY
W(PB)
SciTegic.value.DoubleValue
-58.290

@<SCITEGIC>MOL_PROPERTY
W(SA)
SciTegic.value.DoubleValue
2.011

@<SCITEGIC>MOL_PROPERTY
Valence
SciTegic.value.DoubleValue
4.890

@<SCITEGIC>MOL_PROPERTY
Coulomb
SciTegic.value.DoubleValue
46.339

@<SCITEGIC>MOL_PROPERTY
VdW
SciTegic.value.DoubleValue
0.174

@<SCITEGIC>MOL_PROPERTY
VdW6
SciTegic.value.DoubleValue
-8.062

@<SCITEGIC>MOL_PROPERTY
VdW12
SciTegic.value.DoubleValue
8.235

@<SCITEGIC>MOL_PROPERTY
Bond
SciTegic.value.DoubleValue
0.255

@<SCITEGIC>MOL_PROPERTY
Angle
SciTegic.value.DoubleValue
1.788

@<SCITEGIC>MOL_PROPERTY
Pdih
SciTegic.value.DoubleValue
2.848

@<SCITEGIC>MOL_PROPERTY
Idih
SciTegic.value.DoubleValue
0.000

@<SCITEGIC>MOL_PROPERTY
Tether
SciTegic.value.DoubleValue
0.000

@<TRIPOS>MOLECULE
guest-2_vm2.mol2 : vm2 ligand conformer 78
          23          22           1
SMALL
USER_CHARGES
 
@<TRIPOS>ATOM
       1    N1      19.363539   17.779666   24.591896 N.4        1 MOL1        -0.5940
       2    H1      18.717824   17.719479   23.799789 H          1 MOL1         0.3649
       3    H2      18.866305   17.428675   25.417518 H          1 MOL1         0.3649
       4    H3      20.133159   17.128341   24.408079 H          1 MOL1         0.3649
       5    C1      19.864593   19.195275   24.798097 C.3        1 MOL1         0.0207
       6    H4      20.551826   19.170093   25.648124 H          1 MOL1         0.0950
       7    H5      19.014655   19.827177   25.069277 H          1 MOL1         0.0950
       8    C2      20.593709   19.798571   23.579303 C.3        1 MOL1        -0.1415
       9    H6      21.208782   20.632247   23.943094 H          1 MOL1         0.0976
      10    H7      21.300768   19.071855   23.159670 H          1 MOL1         0.0976
      11    C3      19.650368   20.355906   22.479836 C.3        1 MOL1        -0.1375
      12    H8      20.255569   20.897081   21.740411 H          1 MOL1         0.0976
      13    H9      18.994273   21.114128   22.929112 H          1 MOL1         0.0976
      14    C4      18.768464   19.313348   21.742074 C.3        1 MOL1        -0.1375
      15    H10     18.031672   18.894915   22.438548 H          1 MOL1         0.0976
      16    H11     18.176304   19.839451   20.980556 H          1 MOL1         0.0976
      17    C5      19.544160   18.161450   21.052790 C.3        1 MOL1        -0.1350
      18    H12     18.818889   17.480418   20.585903 H          1 MOL1         0.0976
      19    H13     20.085597   17.562528   21.795977 H          1 MOL1         0.0976
      20    C6      20.531167   18.652783   19.970005 C.3        1 MOL1        -0.2365
      21    H14     21.341813   19.249586   20.406277 H          1 MOL1         0.0987
      22    H15     20.018623   19.266329   19.217811 H          1 MOL1         0.0987
      23    H16     20.989877   17.800489   19.452295 H          1 MOL1         0.0987
@<TRIPOS>BOND
    1     1     2    1
    2     1     3    1
    3     1     4    1
    4     1     5    1
    5     5     6    1
    6     5     7    1
    7     5     8    1
    8     8     9    1
    9     8    10    1
   10     8    11    1
   11    11    12    1
   12    11    13    1
   13    11    14    1
   14    14    15    1
   15    14    16    1
   16    14    17    1
   17    17    18    1
   18    17    19    1
   19    17    20    1
   20    20    21    1
   21    20    22    1
   22    20    23    1
@<TRIPOS>SUBSTRUCTURE
       1 MOL1            1 RESIDUE      1      MOL     
@<SCITEGIC>MOL_PROPERTY
VM2 Rank
SciTegic.value.IntegerValue
78

@<SCITEGIC>MOL_PROPERTY
Conf_Id
SciTegic.value.IntegerValue
938

@<SCITEGIC>MOL_PROPERTY
Probability
SciTegic.value.DoubleValue
0.00

@<SCITEGIC>MOL_PROPERTY
Sum Probability
SciTegic.value.DoubleValue
99.99

@<SCITEGIC>MOL_PROPERTY
Delta G
SciTegic.value.DoubleValue
4.664

@<SCITEGIC>MOL_PROPERTY
G
SciTegic.value.DoubleValue
42.581

@<SCITEGIC>MOL_PROPERTY
E
SciTegic.value.DoubleValue
14.117

@<SCITEGIC>MOL_PROPERTY
-TS
SciTegic.value.DoubleValue
28.463

@<SCITEGIC>MOL_PROPERTY
U+W
SciTegic.value.DoubleValue
-4.662

@<SCITEGIC>MOL_PROPERTY
U
SciTegic.value.DoubleValue
51.396

@<SCITEGIC>MOL_PROPERTY
W
SciTegic.value.DoubleValue
-56.058

@<SCITEGIC>MOL_PROPERTY
W(PB)
SciTegic.value.DoubleValue
-58.085

@<SCITEGIC>MOL_PROPERTY
W(SA)
SciTegic.value.DoubleValue
2.026

@<SCITEGIC>MOL_PROPERTY
Valence
SciTegic.value.DoubleValue
4.232

@<SCITEGIC>MOL_PROPERTY
Coulomb
SciTegic.value.DoubleValue
46.940

@<SCITEGIC>MOL_PROPERTY
VdW
SciTegic.value.DoubleValue
0.225

@<SCITEGIC>MOL_PROPERTY
VdW6
SciTegic.value.DoubleValue
-8.093

@<SCITEGIC>MOL_PROPERTY
VdW12
SciTegic.value.DoubleValue
8.318

@<SCITEGIC>MOL_PROPERTY
Bond
SciTegic.value.DoubleValue
0.258

@<SCITEGIC>MOL_PROPERTY
Angle
SciTegic.value.DoubleValue
1.778

@<SCITEGIC>MOL_PROPERTY
Pdih
SciTegic.value.DoubleValue
2.195

@<SCITEGIC>MOL_PROPERTY
Idih
SciTegic.value.DoubleValue
0.000

@<SCITEGIC>MOL_PROPERTY
Tether
SciTegic.value.DoubleValue
0.000

@<TRIPOS>MOLECULE
guest-2_vm2.mol2 : vm2 ligand conformer 79
          23          22           1
SMALL
USER_CHARGES
 
@<TRIPOS>ATOM
       1    N1      20.772959   18.365913   24.656025 N.4        1 MOL1        -0.5940
       2    H1      20.708074   17.367500   24.434012 H          1 MOL1         0.3649
       3    H2      21.306453   18.443536   25.528633 H          1 MOL1         0.3649
       4    H3      21.330295   18.806265   23.918819 H          1 MOL1         0.3649
       5    C1      19.403041   19.003255   24.777049 C.3        1 MOL1         0.0207
       6    H4      19.531290   20.042030   25.092855 H          1 MOL1         0.0950
       7    H5      18.872553   18.471489   25.571578 H          1 MOL1         0.0950
       8    C2      18.558579   18.952079   23.486582 C.3        1 MOL1        -0.1415
       9    H6      18.609205   17.952339   23.037032 H          1 MOL1         0.0976
      10    H7      17.508403   19.093113   23.774533 H          1 MOL1         0.0976
      11    C3      18.911491   20.048585   22.446163 C.3        1 MOL1        -0.1375
      12    H8      18.800400   21.033525   22.920253 H          1 MOL1         0.0976
      13    H9      18.160882   20.025756   21.644943 H          1 MOL1         0.0976
      14    C4      20.325888   19.961204   21.813063 C.3        1 MOL1        -0.1375
      15    H10     20.428173   20.776149   21.083166 H          1 MOL1         0.0976
      16    H11     21.085305   20.165183   22.577723 H          1 MOL1         0.0976
      17    C5      20.650349   18.621577   21.103266 C.3        1 MOL1        -0.1350
      18    H12     20.636582   17.791749   21.821168 H          1 MOL1         0.0976
      19    H13     21.677855   18.669601   20.716317 H          1 MOL1         0.0976
      20    C6      19.693695   18.304385   19.931851 C.3        1 MOL1        -0.2365
      21    H14     18.668264   18.137469   20.284392 H          1 MOL1         0.0987
      22    H15     20.015261   17.395025   19.407920 H          1 MOL1         0.0987
      23    H16     19.677516   19.124372   19.202264 H          1 MOL1         0.0987
@<TRIPOS>BOND
    1     1     2    1
    2     1     3    1
    3     1     4    1
    4     1     5    1
    5     5     6    1
    6     5     7    1
    7     5     8    1
    8     8     9    1
    9     8    10    1
   10     8    11    1
   11    11    12    1
   12    11    13    1
   13    11    14    1
   14    14    15    1
   15    14    16    1
   16    14    17    1
   17    17    18    1
   18    17    19    1
   19    17    20    1
   20    20    21    1
   21    20    22    1
   22    20    23    1
@<TRIPOS>SUBSTRUCTURE
       1 MOL1            1 RESIDUE      1      MOL     
@<SCITEGIC>MOL_PROPERTY
VM2 Rank
SciTegic.value.IntegerValue
79

@<SCITEGIC>MOL_PROPERTY
Conf_Id
SciTegic.value.IntegerValue
140

@<SCITEGIC>MOL_PROPERTY
Probability
SciTegic.value.DoubleValue
0.00

@<SCITEGIC>MOL_PROPERTY
Sum Probability
SciTegic.value.DoubleValue
100.00

@<SCITEGIC>MOL_PROPERTY
Delta G
SciTegic.value.DoubleValue
4.718

@<SCITEGIC>MOL_PROPERTY
G
SciTegic.value.DoubleValue
42.634

@<SCITEGIC>MOL_PROPERTY
E
SciTegic.value.DoubleValue
14.171

@<SCITEGIC>MOL_PROPERTY
-TS
SciTegic.value.DoubleValue
28.464

@<SCITEGIC>MOL_PROPERTY
U+W
SciTegic.value.DoubleValue
-4.608

@<SCITEGIC>MOL_PROPERTY
U
SciTegic.value.DoubleValue
51.397

@<SCITEGIC>MOL_PROPERTY
W
SciTegic.value.DoubleValue
-56.005

@<SCITEGIC>MOL_PROPERTY
W(PB)
SciTegic.value.DoubleValue
-58.025

@<SCITEGIC>MOL_PROPERTY
W(SA)
SciTegic.value.DoubleValue
2.020

@<SCITEGIC>MOL_PROPERTY
Valence
SciTegic.value.DoubleValue
4.231

@<SCITEGIC>MOL_PROPERTY
Coulomb
SciTegic.value.DoubleValue
46.940

@<SCITEGIC>MOL_PROPERTY
VdW
SciTegic.value.DoubleValue
0.225

@<SCITEGIC>MOL_PROPERTY
VdW6
SciTegic.value.DoubleValue
-8.093

@<SCITEGIC>MOL_PROPERTY
VdW12
SciTegic.value.DoubleValue
8.318

@<SCITEGIC>MOL_PROPERTY
Bond
SciTegic.value.DoubleValue
0.258

@<SCITEGIC>MOL_PROPERTY
Angle
SciTegic.value.DoubleValue
1.778

@<SCITEGIC>MOL_PROPERTY
Pdih
SciTegic.value.DoubleValue
2.195

@<SCITEGIC>MOL_PROPERTY
Idih
SciTegic.value.DoubleValue
0.000

@<SCITEGIC>MOL_PROPERTY
Tether
SciTegic.value.DoubleValue
0.000

@<TRIPOS>MOLECULE
guest-2_vm2.mol2 : vm2 ligand conformer 80
          23          22           1
SMALL
USER_CHARGES
 
@<TRIPOS>ATOM
       1    N1      19.236633   17.640214   24.285025 N.4        1 MOL1        -0.5940
       2    H1      18.373122   17.139478   24.520896 H          1 MOL1         0.3649
       3    H2      19.962412   17.304810   24.926544 H          1 MOL1         0.3649
       4    H3      19.506798   17.353163   23.339509 H          1 MOL1         0.3649
       5    C1      19.058781   19.142798   24.375052 C.3        1 MOL1         0.0207
       6    H4      18.736312   19.378864   25.392782 H          1 MOL1         0.0950
       7    H5      18.256705   19.436063   23.694372 H          1 MOL1         0.0950
       8    C2      20.337035   19.939128   24.049762 C.3        1 MOL1        -0.1415
       9    H6      20.116361   21.010434   24.146162 H          1 MOL1         0.0976
      10    H7      21.090264   19.717184   24.817344 H          1 MOL1         0.0976
      11    C3      20.954738   19.667854   22.651505 C.3        1 MOL1        -0.1375
      12    H8      21.271898   18.621940   22.566138 H          1 MOL1         0.0976
      13    H9      21.884157   20.251045   22.593413 H          1 MOL1         0.0976
      14    C4      20.067520   20.085126   21.446029 C.3        1 MOL1        -0.1375
      15    H10     19.561783   21.032319   21.678539 H          1 MOL1         0.0976
      16    H11     20.725973   20.306450   20.594650 H          1 MOL1         0.0976
      17    C5      19.018350   19.044109   20.974565 C.3        1 MOL1        -0.1350
      18    H12     18.421812   19.499426   20.171651 H          1 MOL1         0.0976
      19    H13     18.305060   18.812280   21.772764 H          1 MOL1         0.0976
      20    C6      19.642944   17.737772   20.432062 C.3        1 MOL1        -0.2365
      21    H14     18.863414   17.081210   20.024194 H          1 MOL1         0.0987
      22    H15     20.169254   17.177200   21.212879 H          1 MOL1         0.0987
      23    H16     20.355958   17.949235   19.624592 H          1 MOL1         0.0987
@<TRIPOS>BOND
    1     1     2    1
    2     1     3    1
    3     1     4    1
    4     1     5    1
    5     5     6    1
    6     5     7    1
    7     5     8    1
    8     8     9    1
    9     8    10    1
   10     8    11    1
   11    11    12    1
   12    11    13    1
   13    11    14    1
   14    14    15    1
   15    14    16    1
   16    14    17    1
   17    17    18    1
   18    17    19    1
   19    17    20    1
   20    20    21    1
   21    20    22    1
   22    20    23    1
@<TRIPOS>SUBSTRUCTURE
       1 MOL1            1 RESIDUE      1      MOL     
@<SCITEGIC>MOL_PROPERTY
VM2 Rank
SciTegic.value.IntegerValue
80

@<SCITEGIC>MOL_PROPERTY
Conf_Id
SciTegic.value.IntegerValue
487

@<SCITEGIC>MOL_PROPERTY
Probability
SciTegic.value.DoubleValue
0.00

@<SCITEGIC>MOL_PROPERTY
Sum Probability
SciTegic.value.DoubleValue
100.00

@<SCITEGIC>MOL_PROPERTY
Delta G
SciTegic.value.DoubleValue
5.387

@<SCITEGIC>MOL_PROPERTY
G
SciTegic.value.DoubleValue
43.303

@<SCITEGIC>MOL_PROPERTY
E
SciTegic.value.DoubleValue
14.887

@<SCITEGIC>MOL_PROPERTY
-TS
SciTegic.value.DoubleValue
28.416

@<SCITEGIC>MOL_PROPERTY
U+W
SciTegic.value.DoubleValue
-3.892

@<SCITEGIC>MOL_PROPERTY
U
SciTegic.value.DoubleValue
51.834

@<SCITEGIC>MOL_PROPERTY
W
SciTegic.value.DoubleValue
-55.726

@<SCITEGIC>MOL_PROPERTY
W(PB)
SciTegic.value.DoubleValue
-57.738

@<SCITEGIC>MOL_PROPERTY
W(SA)
SciTegic.value.DoubleValue
2.013

@<SCITEGIC>MOL_PROPERTY
Valence
SciTegic.value.DoubleValue
5.094

@<SCITEGIC>MOL_PROPERTY
Coulomb
SciTegic.value.DoubleValue
46.450

@<SCITEGIC>MOL_PROPERTY
VdW
SciTegic.value.DoubleValue
0.290

@<SCITEGIC>MOL_PROPERTY
VdW6
SciTegic.value.DoubleValue
-8.010

@<SCITEGIC>MOL_PROPERTY
VdW12
SciTegic.value.DoubleValue
8.300

@<SCITEGIC>MOL_PROPERTY
Bond
SciTegic.value.DoubleValue
0.281

@<SCITEGIC>MOL_PROPERTY
Angle
SciTegic.value.DoubleValue
2.109

@<SCITEGIC>MOL_PROPERTY
Pdih
SciTegic.value.DoubleValue
2.704

@<SCITEGIC>MOL_PROPERTY
Idih
SciTegic.value.DoubleValue
0.000

@<SCITEGIC>MOL_PROPERTY
Tether
SciTegic.value.DoubleValue
0.000

@<TRIPOS>MOLECULE
guest-2_vm2.mol2 : vm2 ligand conformer 81
          23          22           1
SMALL
USER_CHARGES
 
@<TRIPOS>ATOM
       1    N1      20.853637   18.509498   25.244561 N.4        1 MOL1        -0.5940
       2    H1      21.718386   18.944199   25.583917 H          1 MOL1         0.3649
       3    H2      21.097761   17.565123   24.929887 H          1 MOL1         0.3649
       4    H3      20.234774   18.406427   26.055218 H          1 MOL1         0.3649
       5    C1      20.208658   19.324888   24.142365 C.3        1 MOL1         0.0207
       6    H4      20.933320   19.424742   23.331890 H          1 MOL1         0.0950
       7    H5      20.001587   20.322458   24.539006 H          1 MOL1         0.0950
       8    C2      18.903496   18.699033   23.613550 C.3        1 MOL1        -0.1415
       9    H6      19.080919   17.674613   23.261018 H          1 MOL1         0.0976
      10    H7      18.200827   18.618792   24.453645 H          1 MOL1         0.0976
      11    C3      18.239320   19.539679   22.495124 C.3        1 MOL1        -0.1375
      12    H8      18.343004   20.610314   22.719912 H          1 MOL1         0.0976
      13    H9      17.159434   19.337683   22.517539 H          1 MOL1         0.0976
      14    C4      18.734654   19.249737   21.052198 C.3        1 MOL1        -0.1375
      15    H10     18.523893   18.204874   20.785580 H          1 MOL1         0.0976
      16    H11     18.121246   19.854054   20.369526 H          1 MOL1         0.0976
      17    C5      20.222577   19.581766   20.773660 C.3        1 MOL1        -0.1350
      18    H12     20.564216   20.394297   21.428987 H          1 MOL1         0.0976
      19    H13     20.308325   19.970348   19.749141 H          1 MOL1         0.0976
      20    C6      21.153658   18.352399   20.892543 C.3        1 MOL1        -0.2365
      21    H14     20.885322   17.587685   20.152092 H          1 MOL1         0.0987
      22    H15     21.102612   17.888791   21.883543 H          1 MOL1         0.0987
      23    H16     22.197060   18.640237   20.709982 H          1 MOL1         0.0987
@<TRIPOS>BOND
    1     1     2    1
    2     1     3    1
    3     1     4    1
    4     1     5    1
    5     5     6    1
    6     5     7    1
    7     5     8    1
    8     8     9    1
    9     8    10    1
   10     8    11    1
   11    11    12    1
   12    11    13    1
   13    11    14    1
   14    14    15    1
   15    14    16    1
   16    14    17    1
   17    17    18    1
   18    17    19    1
   19    17    20    1
   20    20    21    1
   21    20    22    1
   22    20    23    1
@<TRIPOS>SUBSTRUCTURE
       1 MOL1            1 RESIDUE      1      MOL     
@<SCITEGIC>MOL_PROPERTY
VM2 Rank
SciTegic.value.IntegerValue
81

@<SCITEGIC>MOL_PROPERTY
Conf_Id
SciTegic.value.IntegerValue
736

@<SCITEGIC>MOL_PROPERTY
Probability
SciTegic.value.DoubleValue
0.00

@<SCITEGIC>MOL_PROPERTY
Sum Probability
SciTegic.value.DoubleValue
100.00

@<SCITEGIC>MOL_PROPERTY
Delta G
SciTegic.value.DoubleValue
5.840

@<SCITEGIC>MOL_PROPERTY
G
SciTegic.value.DoubleValue
43.756

@<SCITEGIC>MOL_PROPERTY
E
SciTegic.value.DoubleValue
15.363

@<SCITEGIC>MOL_PROPERTY
-TS
SciTegic.value.DoubleValue
28.393

@<SCITEGIC>MOL_PROPERTY
U+W
SciTegic.value.DoubleValue
-3.416

@<SCITEGIC>MOL_PROPERTY
U
SciTegic.value.DoubleValue
52.784

@<SCITEGIC>MOL_PROPERTY
W
SciTegic.value.DoubleValue
-56.200

@<SCITEGIC>MOL_PROPERTY
W(PB)
SciTegic.value.DoubleValue
-58.238

@<SCITEGIC>MOL_PROPERTY
W(SA)
SciTegic.value.DoubleValue
2.038

@<SCITEGIC>MOL_PROPERTY
Valence
SciTegic.value.DoubleValue
6.630

@<SCITEGIC>MOL_PROPERTY
Coulomb
SciTegic.value.DoubleValue
45.869

@<SCITEGIC>MOL_PROPERTY
VdW
SciTegic.value.DoubleValue
0.285

@<SCITEGIC>MOL_PROPERTY
VdW6
SciTegic.value.DoubleValue
-7.559

@<SCITEGIC>MOL_PROPERTY
VdW12
SciTegic.value.DoubleValue
7.844

@<SCITEGIC>MOL_PROPERTY
Bond
SciTegic.value.DoubleValue
0.231

@<SCITEGIC>MOL_PROPERTY
Angle
SciTegic.value.DoubleValue
1.767

@<SCITEGIC>MOL_PROPERTY
Pdih
SciTegic.value.DoubleValue
4.632

@<SCITEGIC>MOL_PROPERTY
Idih
SciTegic.value.DoubleValue
0.000

@<SCITEGIC>MOL_PROPERTY
Tether
SciTegic.value.DoubleValue
0.000

@<TRIPOS>MOLECULE
guest-2_vm2.mol2 : vm2 ligand conformer 82
          23          22           1
SMALL
USER_CHARGES
 
@<TRIPOS>ATOM
       1    N1      19.159589   17.804842   25.167373 N.4        1 MOL1        -0.5940
       2    H1      18.218472   17.488462   25.424514 H          1 MOL1         0.3649
       3    H2      19.604232   18.144024   26.026458 H          1 MOL1         0.3649
       4    H3      19.681090   16.975849   24.865267 H          1 MOL1         0.3649
       5    C1      19.120583   18.872330   24.092826 C.3        1 MOL1         0.0207
       6    H4      18.529007   19.709954   24.472002 H          1 MOL1         0.0950
       7    H5      18.603982   18.455953   23.225802 H          1 MOL1         0.0950
       8    C2      20.520886   19.371778   23.687247 C.3        1 MOL1        -0.1415
       9    H6      21.005848   19.785500   24.581444 H          1 MOL1         0.0976
      10    H7      21.148877   18.534769   23.355230 H          1 MOL1         0.0976
      11    C3      20.478741   20.471166   22.597168 C.3        1 MOL1        -0.1375
      12    H8      21.378069   21.092442   22.709781 H          1 MOL1         0.0976
      13    H9      19.630559   21.145864   22.778577 H          1 MOL1         0.0976
      14    C4      20.448211   19.962496   21.130274 C.3        1 MOL1        -0.1375
      15    H10     20.503946   20.845147   20.478100 H          1 MOL1         0.0976
      16    H11     21.356554   19.383130   20.914655 H          1 MOL1         0.0976
      17    C5      19.190248   19.152365   20.726589 C.3        1 MOL1        -0.1350
      18    H12     18.934444   19.398852   19.686495 H          1 MOL1         0.0976
      19    H13     18.324352   19.462631   21.326869 H          1 MOL1         0.0976
      20    C6      19.397743   17.622023   20.812524 C.3        1 MOL1        -0.2365
      21    H14     20.184965   17.296352   20.120224 H          1 MOL1         0.0987
      22    H15     18.475688   17.092308   20.540343 H          1 MOL1         0.0987
      23    H16     19.684863   17.299116   21.818959 H          1 MOL1         0.0987
@<TRIPOS>BOND
    1     1     2    1
    2     1     3    1
    3     1     4    1
    4     1     5    1
    5     5     6    1
    6     5     7    1
    7     5     8    1
    8     8     9    1
    9     8    10    1
   10     8    11    1
   11    11    12    1
   12    11    13    1
   13    11    14    1
   14    14    15    1
   15    14    16    1
   16    14    17    1
   17    17    18    1
   18    17    19    1
   19    17    20    1
   20    20    21    1
   21    20    22    1
   22    20    23    1
@<TRIPOS>SUBSTRUCTURE
       1 MOL1            1 RESIDUE      1      MOL     
@<SCITEGIC>MOL_PROPERTY
VM2 Rank
SciTegic.value.IntegerValue
82

@<SCITEGIC>MOL_PROPERTY
Conf_Id
SciTegic.value.IntegerValue
496

@<SCITEGIC>MOL_PROPERTY
Probability
SciTegic.value.DoubleValue
0.00

@<SCITEGIC>MOL_PROPERTY
Sum Probability
SciTegic.value.DoubleValue
100.00

@<SCITEGIC>MOL_PROPERTY
Delta G
SciTegic.value.DoubleValue
5.873

@<SCITEGIC>MOL_PROPERTY
G
SciTegic.value.DoubleValue
43.789

@<SCITEGIC>MOL_PROPERTY
E
SciTegic.value.DoubleValue
15.396

@<SCITEGIC>MOL_PROPERTY
-TS
SciTegic.value.DoubleValue
28.393

@<SCITEGIC>MOL_PROPERTY
U+W
SciTegic.value.DoubleValue
-3.383

@<SCITEGIC>MOL_PROPERTY
U
SciTegic.value.DoubleValue
52.784

@<SCITEGIC>MOL_PROPERTY
W
SciTegic.value.DoubleValue
-56.167

@<SCITEGIC>MOL_PROPERTY
W(PB)
SciTegic.value.DoubleValue
-58.215

@<SCITEGIC>MOL_PROPERTY
W(SA)
SciTegic.value.DoubleValue
2.048

@<SCITEGIC>MOL_PROPERTY
Valence
SciTegic.value.DoubleValue
6.630

@<SCITEGIC>MOL_PROPERTY
Coulomb
SciTegic.value.DoubleValue
45.869

@<SCITEGIC>MOL_PROPERTY
VdW
SciTegic.value.DoubleValue
0.285

@<SCITEGIC>MOL_PROPERTY
VdW6
SciTegic.value.DoubleValue
-7.559

@<SCITEGIC>MOL_PROPERTY
VdW12
SciTegic.value.DoubleValue
7.844

@<SCITEGIC>MOL_PROPERTY
Bond
SciTegic.value.DoubleValue
0.231

@<SCITEGIC>MOL_PROPERTY
Angle
SciTegic.value.DoubleValue
1.767

@<SCITEGIC>MOL_PROPERTY
Pdih
SciTegic.value.DoubleValue
4.632

@<SCITEGIC>MOL_PROPERTY
Idih
SciTegic.value.DoubleValue
0.000

@<SCITEGIC>MOL_PROPERTY
Tether
SciTegic.value.DoubleValue
0.000

@<TRIPOS>MOLECULE
guest-2_vm2.mol2 : vm2 ligand conformer 83
          23          22           1
SMALL
USER_CHARGES
 
@<TRIPOS>ATOM
       1    N1      20.691022   18.519574   24.967464 N.4        1 MOL1        -0.5940
       2    H1      20.996550   18.477110   25.945650 H          1 MOL1         0.3649
       3    H2      21.234969   19.259812   24.513830 H          1 MOL1         0.3649
       4    H3      20.957736   17.631435   24.531156 H          1 MOL1         0.3649
       5    C1      19.202274   18.776910   24.854607 C.3        1 MOL1         0.0207
       6    H4      18.984226   19.716770   25.368849 H          1 MOL1         0.0950
       7    H5      18.688273   17.973058   25.388592 H          1 MOL1         0.0950
       8    C2      18.669408   18.846866   23.407728 C.3        1 MOL1        -0.1415
       9    H6      18.859188   17.896633   22.894548 H          1 MOL1         0.0976
      10    H7      17.577450   18.947050   23.464982 H          1 MOL1         0.0976
      11    C3      19.227134   20.045091   22.593391 C.3        1 MOL1        -0.1375
      12    H8      19.371331   20.897349   23.271920 H          1 MOL1         0.0976
      13    H9      18.469083   20.376632   21.870460 H          1 MOL1         0.0976
      14    C4      20.553543   19.758291   21.837731 C.3        1 MOL1        -0.1375
      15    H10     21.154844   20.677988   21.838231 H          1 MOL1         0.0976
      16    H11     21.154001   19.008179   22.365730 H          1 MOL1         0.0976
      17    C5      20.364806   19.322878   20.362241 C.3        1 MOL1        -0.1350
      18    H12     21.355064   19.229649   19.894797 H          1 MOL1         0.0976
      19    H13     19.840407   20.113934   19.808146 H          1 MOL1         0.0976
      20    C6      19.607814   17.987389   20.190837 C.3        1 MOL1        -0.2365
      21    H14     20.093115   17.182073   20.757121 H          1 MOL1         0.0987
      22    H15     19.588762   17.689904   19.134427 H          1 MOL1         0.0987
      23    H16     18.567088   18.071903   20.527479 H          1 MOL1         0.0987
@<TRIPOS>BOND
    1     1     2    1
    2     1     3    1
    3     1     4    1
    4     1     5    1
    5     5     6    1
    6     5     7    1
    7     5     8    1
    8     8     9    1
    9     8    10    1
   10     8    11    1
   11    11    12    1
   12    11    13    1
   13    11    14    1
   14    14    15    1
   15    14    16    1
   16    14    17    1
   17    17    18    1
   18    17    19    1
   19    17    20    1
   20    20    21    1
   21    20    22    1
   22    20    23    1
@<TRIPOS>SUBSTRUCTURE
       1 MOL1            1 RESIDUE      1      MOL     
@<SCITEGIC>MOL_PROPERTY
VM2 Rank
SciTegic.value.IntegerValue
83

@<SCITEGIC>MOL_PROPERTY
Conf_Id
SciTegic.value.IntegerValue
104

@<SCITEGIC>MOL_PROPERTY
Probability
SciTegic.value.DoubleValue
0.00

@<SCITEGIC>MOL_PROPERTY
Sum Probability
SciTegic.value.DoubleValue
100.00

@<SCITEGIC>MOL_PROPERTY
Delta G
SciTegic.value.DoubleValue
6.275

@<SCITEGIC>MOL_PROPERTY
G
SciTegic.value.DoubleValue
44.192

@<SCITEGIC>MOL_PROPERTY
E
SciTegic.value.DoubleValue
16.072

@<SCITEGIC>MOL_PROPERTY
-TS
SciTegic.value.DoubleValue
28.120

@<SCITEGIC>MOL_PROPERTY
U+W
SciTegic.value.DoubleValue
-2.707

@<SCITEGIC>MOL_PROPERTY
U
SciTegic.value.DoubleValue
53.344

@<SCITEGIC>MOL_PROPERTY
W
SciTegic.value.DoubleValue
-56.051

@<SCITEGIC>MOL_PROPERTY
W(PB)
SciTegic.value.DoubleValue
-58.096

@<SCITEGIC>MOL_PROPERTY
W(SA)
SciTegic.value.DoubleValue
2.045

@<SCITEGIC>MOL_PROPERTY
Valence
SciTegic.value.DoubleValue
6.531

@<SCITEGIC>MOL_PROPERTY
Coulomb
SciTegic.value.DoubleValue
46.150

@<SCITEGIC>MOL_PROPERTY
VdW
SciTegic.value.DoubleValue
0.663

@<SCITEGIC>MOL_PROPERTY
VdW6
SciTegic.value.DoubleValue
-7.490

@<SCITEGIC>MOL_PROPERTY
VdW12
SciTegic.value.DoubleValue
8.152

@<SCITEGIC>MOL_PROPERTY
Bond
SciTegic.value.DoubleValue
0.263

@<SCITEGIC>MOL_PROPERTY
Angle
SciTegic.value.DoubleValue
1.395

@<SCITEGIC>MOL_PROPERTY
Pdih
SciTegic.value.DoubleValue
4.873

@<SCITEGIC>MOL_PROPERTY
Idih
SciTegic.value.DoubleValue
0.000

@<SCITEGIC>MOL_PROPERTY
Tether
SciTegic.value.DoubleValue
0.000

@<TRIPOS>MOLECULE
guest-2_vm2.mol2 : vm2 ligand conformer 84
          23          22           1
SMALL
USER_CHARGES
 
@<TRIPOS>ATOM
       1    N1      18.655806   18.868313   25.022283 N.4        1 MOL1        -0.5940
       2    H1      17.818964   18.334931   25.281135 H          1 MOL1         0.3649
       3    H2      18.335709   19.769816   24.656309 H          1 MOL1         0.3649
       4    H3      19.168322   19.058468   25.889316 H          1 MOL1         0.3649
       5    C1      19.509949   18.122455   24.015597 C.3        1 MOL1         0.0207
       6    H4      18.896640   17.925030   23.134374 H          1 MOL1         0.0950
       7    H5      19.780290   17.161620   24.461919 H          1 MOL1         0.0950
       8    C2      20.795754   18.874525   23.612359 C.3        1 MOL1        -0.1415
       9    H6      21.366561   19.086778   24.526122 H          1 MOL1         0.0976
      10    H7      21.433326   18.216464   23.007666 H          1 MOL1         0.0976
      11    C3      20.550724   20.204907   22.852526 C.3        1 MOL1        -0.1375
      12    H8      21.429678   20.845389   23.009312 H          1 MOL1         0.0976
      13    H9      19.709900   20.753129   23.296614 H          1 MOL1         0.0976
      14    C4      20.344749   20.074987   21.319021 C.3        1 MOL1        -0.1375
      15    H10     20.271100   21.093160   20.912333 H          1 MOL1         0.0976
      16    H11     21.241137   19.640539   20.855358 H          1 MOL1         0.0976
      17    C5      19.082217   19.293533   20.875688 C.3        1 MOL1        -0.1350
      18    H12     18.664120   19.780162   19.983302 H          1 MOL1         0.0976
      19    H13     18.299766   19.359096   21.643555 H          1 MOL1         0.0976
      20    C6      19.376801   17.818279   20.516526 C.3        1 MOL1        -0.2365
      21    H14     19.833468   17.273208   21.349857 H          1 MOL1         0.0987
      22    H15     20.062403   17.755412   19.661492 H          1 MOL1         0.0987
      23    H16     18.451517   17.296549   20.239906 H          1 MOL1         0.0987
@<TRIPOS>BOND
    1     1     2    1
    2     1     3    1
    3     1     4    1
    4     1     5    1
    5     5     6    1
    6     5     7    1
    7     5     8    1
    8     8     9    1
    9     8    10    1
   10     8    11    1
   11    11    12    1
   12    11    13    1
   13    11    14    1
   14    14    15    1
   15    14    16    1
   16    14    17    1
   17    17    18    1
   18    17    19    1
   19    17    20    1
   20    20    21    1
   21    20    22    1
   22    20    23    1
@<TRIPOS>SUBSTRUCTURE
       1 MOL1            1 RESIDUE      1      MOL     
@<SCITEGIC>MOL_PROPERTY
VM2 Rank
SciTegic.value.IntegerValue
84

@<SCITEGIC>MOL_PROPERTY
Conf_Id
SciTegic.value.IntegerValue
378

@<SCITEGIC>MOL_PROPERTY
Probability
SciTegic.value.DoubleValue
0.00

@<SCITEGIC>MOL_PROPERTY
Sum Probability
SciTegic.value.DoubleValue
100.00

@<SCITEGIC>MOL_PROPERTY
Delta G
SciTegic.value.DoubleValue
6.344

@<SCITEGIC>MOL_PROPERTY
G
SciTegic.value.DoubleValue
44.261

@<SCITEGIC>MOL_PROPERTY
E
SciTegic.value.DoubleValue
15.790

@<SCITEGIC>MOL_PROPERTY
-TS
SciTegic.value.DoubleValue
28.471

@<SCITEGIC>MOL_PROPERTY
U+W
SciTegic.value.DoubleValue
-2.989

@<SCITEGIC>MOL_PROPERTY
U
SciTegic.value.DoubleValue
53.200

@<SCITEGIC>MOL_PROPERTY
W
SciTegic.value.DoubleValue
-56.189

@<SCITEGIC>MOL_PROPERTY
W(PB)
SciTegic.value.DoubleValue
-58.231

@<SCITEGIC>MOL_PROPERTY
W(SA)
SciTegic.value.DoubleValue
2.042

@<SCITEGIC>MOL_PROPERTY
Valence
SciTegic.value.DoubleValue
6.810

@<SCITEGIC>MOL_PROPERTY
Coulomb
SciTegic.value.DoubleValue
46.000

@<SCITEGIC>MOL_PROPERTY
VdW
SciTegic.value.DoubleValue
0.390

@<SCITEGIC>MOL_PROPERTY
VdW6
SciTegic.value.DoubleValue
-8.050

@<SCITEGIC>MOL_PROPERTY
VdW12
SciTegic.value.DoubleValue
8.440

@<SCITEGIC>MOL_PROPERTY
Bond
SciTegic.value.DoubleValue
0.260

@<SCITEGIC>MOL_PROPERTY
Angle
SciTegic.value.DoubleValue
1.891

@<SCITEGIC>MOL_PROPERTY
Pdih
SciTegic.value.DoubleValue
4.660

@<SCITEGIC>MOL_PROPERTY
Idih
SciTegic.value.DoubleValue
0.000

@<SCITEGIC>MOL_PROPERTY
Tether
SciTegic.value.DoubleValue
0.000

@<TRIPOS>MOLECULE
guest-2_vm2.mol2 : vm2 ligand conformer 85
          23          22           1
SMALL
USER_CHARGES
 
@<TRIPOS>ATOM
       1    N1      19.269790   17.593436   24.068566 N.4        1 MOL1        -0.5940
       2    H1      18.434454   17.031535   24.265503 H          1 MOL1         0.3649
       3    H2      20.052829   17.145009   24.555167 H          1 MOL1         0.3649
       4    H3      19.455486   17.525794   23.062776 H          1 MOL1         0.3649
       5    C1      19.092772   19.036026   24.501303 C.3        1 MOL1         0.0207
       6    H4      18.901353   19.025267   25.577758 H          1 MOL1         0.0950
       7    H5      18.209419   19.445140   24.003867 H          1 MOL1         0.0950
       8    C2      20.316228   19.930911   24.216600 C.3        1 MOL1        -0.1415
       9    H6      20.262210   20.794798   24.892336 H          1 MOL1         0.0976
      10    H7      21.237135   19.397524   24.487344 H          1 MOL1         0.0976
      11    C3      20.418364   20.470925   22.764683 C.3        1 MOL1        -0.1375
      12    H8      21.295863   21.130908   22.720860 H          1 MOL1         0.0976
      13    H9      19.555943   21.114590   22.542432 H          1 MOL1         0.0976
      14    C4      20.575630   19.389991   21.664633 C.3        1 MOL1        -0.1375
      15    H10     21.243637   19.780871   20.884430 H          1 MOL1         0.0976
      16    H11     21.083269   18.505579   22.071871 H          1 MOL1         0.0976
      17    C5      19.235068   19.004669   20.992684 C.3        1 MOL1        -0.1350
      18    H12     18.837635   19.875292   20.452130 H          1 MOL1         0.0976
      19    H13     18.478118   18.743264   21.741667 H          1 MOL1         0.0976
      20    C6      19.408147   17.831043   20.005531 C.3        1 MOL1        -0.2365
      21    H14     18.451450   17.582013   19.528150 H          1 MOL1         0.0987
      22    H15     19.773621   16.931001   20.516530 H          1 MOL1         0.0987
      23    H16     20.122823   18.086171   19.212110 H          1 MOL1         0.0987
@<TRIPOS>BOND
    1     1     2    1
    2     1     3    1
    3     1     4    1
    4     1     5    1
    5     5     6    1
    6     5     7    1
    7     5     8    1
    8     8     9    1
    9     8    10    1
   10     8    11    1
   11    11    12    1
   12    11    13    1
   13    11    14    1
   14    14    15    1
   15    14    16    1
   16    14    17    1
   17    17    18    1
   18    17    19    1
   19    17    20    1
   20    20    21    1
   21    20    22    1
   22    20    23    1
@<TRIPOS>SUBSTRUCTURE
       1 MOL1            1 RESIDUE      1      MOL     
@<SCITEGIC>MOL_PROPERTY
VM2 Rank
SciTegic.value.IntegerValue
85

@<SCITEGIC>MOL_PROPERTY
Conf_Id
SciTegic.value.IntegerValue
221

@<SCITEGIC>MOL_PROPERTY
Probability
SciTegic.value.DoubleValue
0.00

@<SCITEGIC>MOL_PROPERTY
Sum Probability
SciTegic.value.DoubleValue
100.00

@<SCITEGIC>MOL_PROPERTY
Delta G
SciTegic.value.DoubleValue
6.772

@<SCITEGIC>MOL_PROPERTY
G
SciTegic.value.DoubleValue
44.688

@<SCITEGIC>MOL_PROPERTY
E
SciTegic.value.DoubleValue
16.391

@<SCITEGIC>MOL_PROPERTY
-TS
SciTegic.value.DoubleValue
28.298

@<SCITEGIC>MOL_PROPERTY
U+W
SciTegic.value.DoubleValue
-2.389

@<SCITEGIC>MOL_PROPERTY
U
SciTegic.value.DoubleValue
52.836

@<SCITEGIC>MOL_PROPERTY
W
SciTegic.value.DoubleValue
-55.224

@<SCITEGIC>MOL_PROPERTY
W(PB)
SciTegic.value.DoubleValue
-57.261

@<SCITEGIC>MOL_PROPERTY
W(SA)
SciTegic.value.DoubleValue
2.037

@<SCITEGIC>MOL_PROPERTY
Valence
SciTegic.value.DoubleValue
5.785

@<SCITEGIC>MOL_PROPERTY
Coulomb
SciTegic.value.DoubleValue
46.744

@<SCITEGIC>MOL_PROPERTY
VdW
SciTegic.value.DoubleValue
0.307

@<SCITEGIC>MOL_PROPERTY
VdW6
SciTegic.value.DoubleValue
-7.671

@<SCITEGIC>MOL_PROPERTY
VdW12
SciTegic.value.DoubleValue
7.978

@<SCITEGIC>MOL_PROPERTY
Bond
SciTegic.value.DoubleValue
0.217

@<SCITEGIC>MOL_PROPERTY
Angle
SciTegic.value.DoubleValue
1.470

@<SCITEGIC>MOL_PROPERTY
Pdih
SciTegic.value.DoubleValue
4.098

@<SCITEGIC>MOL_PROPERTY
Idih
SciTegic.value.DoubleValue
0.000

@<SCITEGIC>MOL_PROPERTY
Tether
SciTegic.value.DoubleValue
0.000

@<TRIPOS>MOLECULE
guest-2_vm2.mol2 : vm2 ligand conformer 86
          23          22           1
SMALL
USER_CHARGES
 
@<TRIPOS>ATOM
       1    N1      21.011207   18.317823   24.147759 N.4        1 MOL1        -0.5940
       2    H1      21.006682   18.171167   23.133293 H          1 MOL1         0.3649
       3    H2      20.741336   17.431343   24.586320 H          1 MOL1         0.3649
       4    H3      21.980137   18.506457   24.426856 H          1 MOL1         0.3649
       5    C1      20.080579   19.446875   24.546306 C.3        1 MOL1         0.0207
       6    H4      20.449575   20.376996   24.106027 H          1 MOL1         0.0950
       7    H5      20.139105   19.539961   25.634158 H          1 MOL1         0.0950
       8    C2      18.610274   19.221251   24.138854 C.3        1 MOL1        -0.1415
       9    H6      18.320457   18.184220   24.354367 H          1 MOL1         0.0976
      10    H7      17.984180   19.847127   24.788565 H          1 MOL1         0.0976
      11    C3      18.268862   19.576848   22.666748 C.3        1 MOL1        -0.1375
      12    H8      18.435829   20.648698   22.491447 H          1 MOL1         0.0976
      13    H9      17.189027   19.422677   22.533736 H          1 MOL1         0.0976
      14    C4      19.009018   18.738414   21.593223 C.3        1 MOL1        -0.1375
      15    H10     19.247149   17.741888   21.988133 H          1 MOL1         0.0976
      16    H11     18.323880   18.566517   20.751335 H          1 MOL1         0.0976
      17    C5      20.275018   19.437273   21.040106 C.3        1 MOL1        -0.1350
      18    H12     20.933294   19.764647   21.853605 H          1 MOL1         0.0976
      19    H13     19.979599   20.350278   20.504116 H          1 MOL1         0.0976
      20    C6      21.061042   18.518516   20.081004 C.3        1 MOL1        -0.2365
      21    H14     20.440331   18.218073   19.226709 H          1 MOL1         0.0987
      22    H15     21.402033   17.608339   20.590975 H          1 MOL1         0.0987
      23    H16     21.945970   19.035514   19.687564 H          1 MOL1         0.0987
@<TRIPOS>BOND
    1     1     2    1
    2     1     3    1
    3     1     4    1
    4     1     5    1
    5     5     6    1
    6     5     7    1
    7     5     8    1
    8     8     9    1
    9     8    10    1
   10     8    11    1
   11    11    12    1
   12    11    13    1
   13    11    14    1
   14    14    15    1
   15    14    16    1
   16    14    17    1
   17    17    18    1
   18    17    19    1
   19    17    20    1
   20    20    21    1
   21    20    22    1
   22    20    23    1
@<TRIPOS>SUBSTRUCTURE
       1 MOL1            1 RESIDUE      1      MOL     
@<SCITEGIC>MOL_PROPERTY
VM2 Rank
SciTegic.value.IntegerValue
86

@<SCITEGIC>MOL_PROPERTY
Conf_Id
SciTegic.value.IntegerValue
462

@<SCITEGIC>MOL_PROPERTY
Probability
SciTegic.value.DoubleValue
0.00

@<SCITEGIC>MOL_PROPERTY
Sum Probability
SciTegic.value.DoubleValue
100.00

@<SCITEGIC>MOL_PROPERTY
Delta G
SciTegic.value.DoubleValue
6.862

@<SCITEGIC>MOL_PROPERTY
G
SciTegic.value.DoubleValue
44.778

@<SCITEGIC>MOL_PROPERTY
E
SciTegic.value.DoubleValue
16.481

@<SCITEGIC>MOL_PROPERTY
-TS
SciTegic.value.DoubleValue
28.298

@<SCITEGIC>MOL_PROPERTY
U+W
SciTegic.value.DoubleValue
-2.299

@<SCITEGIC>MOL_PROPERTY
U
SciTegic.value.DoubleValue
52.836

@<SCITEGIC>MOL_PROPERTY
W
SciTegic.value.DoubleValue
-55.134

@<SCITEGIC>MOL_PROPERTY
W(PB)
SciTegic.value.DoubleValue
-57.205

@<SCITEGIC>MOL_PROPERTY
W(SA)
SciTegic.value.DoubleValue
2.071

@<SCITEGIC>MOL_PROPERTY
Valence
SciTegic.value.DoubleValue
5.785

@<SCITEGIC>MOL_PROPERTY
Coulomb
SciTegic.value.DoubleValue
46.744

@<SCITEGIC>MOL_PROPERTY
VdW
SciTegic.value.DoubleValue
0.307

@<SCITEGIC>MOL_PROPERTY
VdW6
SciTegic.value.DoubleValue
-7.672

@<SCITEGIC>MOL_PROPERTY
VdW12
SciTegic.value.DoubleValue
7.979

@<SCITEGIC>MOL_PROPERTY
Bond
SciTegic.value.DoubleValue
0.217

@<SCITEGIC>MOL_PROPERTY
Angle
SciTegic.value.DoubleValue
1.469

@<SCITEGIC>MOL_PROPERTY
Pdih
SciTegic.value.DoubleValue
4.098

@<SCITEGIC>MOL_PROPERTY
Idih
SciTegic.value.DoubleValue
0.000

@<SCITEGIC>MOL_PROPERTY
Tether
SciTegic.value.DoubleValue
0.000

@<TRIPOS>MOLECULE
guest-2_vm2.mol2 : vm2 ligand conformer 87
          23          22           1
SMALL
USER_CHARGES
 
@<TRIPOS>ATOM
       1    N1      19.022887   17.855726   24.479415 N.4        1 MOL1        -0.5940
       2    H1      18.096379   17.502826   24.742556 H          1 MOL1         0.3649
       3    H2      19.690788   17.474062   25.157052 H          1 MOL1         0.3649
       4    H3      19.254831   17.456248   23.565155 H          1 MOL1         0.3649
       5    C1      19.060194   19.371229   24.448156 C.3        1 MOL1         0.0207
       6    H4      18.809380   19.717302   25.454551 H          1 MOL1         0.0950
       7    H5      18.285387   19.727201   23.763934 H          1 MOL1         0.0950
       8    C2      20.427812   19.955867   24.041045 C.3        1 MOL1        -0.1415
       9    H6      20.488417   20.974930   24.445604 H          1 MOL1         0.0976
      10    H7      21.234380   19.392661   24.528997 H          1 MOL1         0.0976
      11    C3      20.679755   20.038499   22.511806 C.3        1 MOL1        -0.1375
      12    H8      21.652727   20.527731   22.365898 H          1 MOL1         0.0976
      13    H9      19.943864   20.711072   22.053189 H          1 MOL1         0.0976
      14    C4      20.714361   18.675351   21.769853 C.3        1 MOL1        -0.1375
      15    H10     21.479374   18.721089   20.982307 H          1 MOL1         0.0976
      16    H11     21.056392   17.889184   22.455860 H          1 MOL1         0.0976
      17    C5      19.369869   18.266448   21.113775 C.3        1 MOL1        -0.1350
      18    H12     18.542085   18.356934   21.827495 H          1 MOL1         0.0976
      19    H13     19.422361   17.205708   20.830883 H          1 MOL1         0.0976
      20    C6      19.041122   19.093881   19.849950 C.3        1 MOL1        -0.2365
      21    H14     19.841018   19.008372   19.103040 H          1 MOL1         0.0987
      22    H15     18.905265   20.156745   20.083900 H          1 MOL1         0.0987
      23    H16     18.112509   18.735669   19.387007 H          1 MOL1         0.0987
@<TRIPOS>BOND
    1     1     2    1
    2     1     3    1
    3     1     4    1
    4     1     5    1
    5     5     6    1
    6     5     7    1
    7     5     8    1
    8     8     9    1
    9     8    10    1
   10     8    11    1
   11    11    12    1
   12    11    13    1
   13    11    14    1
   14    14    15    1
   15    14    16    1
   16    14    17    1
   17    17    18    1
   18    17    19    1
   19    17    20    1
   20    20    21    1
   21    20    22    1
   22    20    23    1
@<TRIPOS>SUBSTRUCTURE
       1 MOL1            1 RESIDUE      1      MOL     
@<SCITEGIC>MOL_PROPERTY
VM2 Rank
SciTegic.value.IntegerValue
87

@<SCITEGIC>MOL_PROPERTY
Conf_Id
SciTegic.value.IntegerValue
678

@<SCITEGIC>MOL_PROPERTY
Probability
SciTegic.value.DoubleValue
0.00

@<SCITEGIC>MOL_PROPERTY
Sum Probability
SciTegic.value.DoubleValue
100.00

@<SCITEGIC>MOL_PROPERTY
Delta G
SciTegic.value.DoubleValue
6.934

@<SCITEGIC>MOL_PROPERTY
G
SciTegic.value.DoubleValue
44.850

@<SCITEGIC>MOL_PROPERTY
E
SciTegic.value.DoubleValue
16.564

@<SCITEGIC>MOL_PROPERTY
-TS
SciTegic.value.DoubleValue
28.286

@<SCITEGIC>MOL_PROPERTY
U+W
SciTegic.value.DoubleValue
-2.215

@<SCITEGIC>MOL_PROPERTY
U
SciTegic.value.DoubleValue
53.835

@<SCITEGIC>MOL_PROPERTY
W
SciTegic.value.DoubleValue
-56.051

@<SCITEGIC>MOL_PROPERTY
W(PB)
SciTegic.value.DoubleValue
-58.080

@<SCITEGIC>MOL_PROPERTY
W(SA)
SciTegic.value.DoubleValue
2.029

@<SCITEGIC>MOL_PROPERTY
Valence
SciTegic.value.DoubleValue
6.519

@<SCITEGIC>MOL_PROPERTY
Coulomb
SciTegic.value.DoubleValue
46.847

@<SCITEGIC>MOL_PROPERTY
VdW
SciTegic.value.DoubleValue
0.469

@<SCITEGIC>MOL_PROPERTY
VdW6
SciTegic.value.DoubleValue
-7.907

@<SCITEGIC>MOL_PROPERTY
VdW12
SciTegic.value.DoubleValue
8.375

@<SCITEGIC>MOL_PROPERTY
Bond
SciTegic.value.DoubleValue
0.262

@<SCITEGIC>MOL_PROPERTY
Angle
SciTegic.value.DoubleValue
1.644

@<SCITEGIC>MOL_PROPERTY
Pdih
SciTegic.value.DoubleValue
4.614

@<SCITEGIC>MOL_PROPERTY
Idih
SciTegic.value.DoubleValue
0.000

@<SCITEGIC>MOL_PROPERTY
Tether
SciTegic.value.DoubleValue
0.000

@<TRIPOS>MOLECULE
guest-2_vm2.mol2 : vm2 ligand conformer 88
          23          22           1
SMALL
USER_CHARGES
 
@<TRIPOS>ATOM
       1    N1      20.967007   18.664616   24.567990 N.4        1 MOL1        -0.5940
       2    H1      21.846735   19.063232   24.913511 H          1 MOL1         0.3649
       3    H2      21.158029   18.248186   23.651831 H          1 MOL1         0.3649
       4    H3      20.715938   17.900528   25.203667 H          1 MOL1         0.3649
       5    C1      19.870112   19.708202   24.485113 C.3        1 MOL1         0.0207
       6    H4      20.214901   20.530062   23.851970 H          1 MOL1         0.0950
       7    H5      19.723032   20.097371   25.496261 H          1 MOL1         0.0950
       8    C2      18.527855   19.165354   23.954470 C.3        1 MOL1        -0.1415
       9    H6      18.322699   18.181207   24.396306 H          1 MOL1         0.0976
      10    H7      17.732354   19.828223   24.320000 H          1 MOL1         0.0976
      11    C3      18.411155   19.094610   22.408427 C.3        1 MOL1        -0.1375
      12    H8      18.486992   20.104915   21.986820 H          1 MOL1         0.0976
      13    H9      17.393171   18.755480   22.171757 H          1 MOL1         0.0976
      14    C4      19.409650   18.132507   21.710406 C.3        1 MOL1        -0.1375
      15    H10     19.673088   17.313647   22.392840 H          1 MOL1         0.0976
      16    H11     18.901423   17.648465   20.864845 H          1 MOL1         0.0976
      17    C5      20.693689   18.817290   21.174108 C.3        1 MOL1        -0.1350
      18    H12     21.429932   18.041041   20.922442 H          1 MOL1         0.0976
      19    H13     21.155190   19.444301   21.946562 H          1 MOL1         0.0976
      20    C6      20.436532   19.674422   19.913485 C.3        1 MOL1        -0.2365
      21    H14     21.377804   20.094349   19.535832 H          1 MOL1         0.0987
      22    H15     19.760985   20.512705   20.122742 H          1 MOL1         0.0987
      23    H16     19.993772   19.071703   19.109922 H          1 MOL1         0.0987
@<TRIPOS>BOND
    1     1     2    1
    2     1     3    1
    3     1     4    1
    4     1     5    1
    5     5     6    1
    6     5     7    1
    7     5     8    1
    8     8     9    1
    9     8    10    1
   10     8    11    1
   11    11    12    1
   12    11    13    1
   13    11    14    1
   14    14    15    1
   15    14    16    1
   16    14    17    1
   17    17    18    1
   18    17    19    1
   19    17    20    1
   20    20    21    1
   21    20    22    1
   22    20    23    1
@<TRIPOS>SUBSTRUCTURE
       1 MOL1            1 RESIDUE      1      MOL     
@<SCITEGIC>MOL_PROPERTY
VM2 Rank
SciTegic.value.IntegerValue
88

@<SCITEGIC>MOL_PROPERTY
Conf_Id
SciTegic.value.IntegerValue
677

@<SCITEGIC>MOL_PROPERTY
Probability
SciTegic.value.DoubleValue
0.00

@<SCITEGIC>MOL_PROPERTY
Sum Probability
SciTegic.value.DoubleValue
100.00

@<SCITEGIC>MOL_PROPERTY
Delta G
SciTegic.value.DoubleValue
7.089

@<SCITEGIC>MOL_PROPERTY
G
SciTegic.value.DoubleValue
45.005

@<SCITEGIC>MOL_PROPERTY
E
SciTegic.value.DoubleValue
16.719

@<SCITEGIC>MOL_PROPERTY
-TS
SciTegic.value.DoubleValue
28.286

@<SCITEGIC>MOL_PROPERTY
U+W
SciTegic.value.DoubleValue
-2.060

@<SCITEGIC>MOL_PROPERTY
U
SciTegic.value.DoubleValue
53.835

@<SCITEGIC>MOL_PROPERTY
W
SciTegic.value.DoubleValue
-55.896

@<SCITEGIC>MOL_PROPERTY
W(PB)
SciTegic.value.DoubleValue
-57.909

@<SCITEGIC>MOL_PROPERTY
W(SA)
SciTegic.value.DoubleValue
2.013

@<SCITEGIC>MOL_PROPERTY
Valence
SciTegic.value.DoubleValue
6.519

@<SCITEGIC>MOL_PROPERTY
Coulomb
SciTegic.value.DoubleValue
46.847

@<SCITEGIC>MOL_PROPERTY
VdW
SciTegic.value.DoubleValue
0.469

@<SCITEGIC>MOL_PROPERTY
VdW6
SciTegic.value.DoubleValue
-7.907

@<SCITEGIC>MOL_PROPERTY
VdW12
SciTegic.value.DoubleValue
8.376

@<SCITEGIC>MOL_PROPERTY
Bond
SciTegic.value.DoubleValue
0.262

@<SCITEGIC>MOL_PROPERTY
Angle
SciTegic.value.DoubleValue
1.644

@<SCITEGIC>MOL_PROPERTY
Pdih
SciTegic.value.DoubleValue
4.614

@<SCITEGIC>MOL_PROPERTY
Idih
SciTegic.value.DoubleValue
0.000

@<SCITEGIC>MOL_PROPERTY
Tether
SciTegic.value.DoubleValue
0.000

@<TRIPOS>MOLECULE
guest-2_vm2.mol2 : vm2 ligand conformer 89
          23          22           1
SMALL
USER_CHARGES
 
@<TRIPOS>ATOM
       1    N1      20.751288   18.043445   24.433169 N.4        1 MOL1        -0.5940
       2    H1      21.286429   18.351048   23.616615 H          1 MOL1         0.3649
       3    H2      20.444702   17.082534   24.251028 H          1 MOL1         0.3649
       4    H3      21.401305   18.003946   25.225678 H          1 MOL1         0.3649
       5    C1      19.577614   18.961083   24.715109 C.3        1 MOL1         0.0207
       6    H4      19.961991   19.950174   24.978207 H          1 MOL1         0.0950
       7    H5      19.060753   18.555399   25.589044 H          1 MOL1         0.0950
       8    C2      18.574148   19.081322   23.549459 C.3        1 MOL1        -0.1415
       9    H6      18.444103   18.109343   23.063661 H          1 MOL1         0.0976
      10    H7      17.594603   19.319359   23.984846 H          1 MOL1         0.0976
      11    C3      18.907012   20.199596   22.523564 C.3        1 MOL1        -0.1375
      12    H8      18.908371   21.154431   23.067452 H          1 MOL1         0.0976
      13    H9      18.086198   20.279617   21.797771 H          1 MOL1         0.0976
      14    C4      20.253939   20.086653   21.757535 C.3        1 MOL1        -0.1375
      15    H10     20.522977   21.099505   21.426856 H          1 MOL1         0.0976
      16    H11     21.068245   19.787386   22.425175 H          1 MOL1         0.0976
      17    C5      20.233892   19.195833   20.488195 C.3        1 MOL1        -0.1350
      18    H12     21.193892   19.321880   19.968158 H          1 MOL1         0.0976
      19    H13     19.465274   19.560359   19.792486 H          1 MOL1         0.0976
      20    C6      20.018108   17.689067   20.746969 C.3        1 MOL1        -0.2365
      21    H14     20.691147   17.314531   21.527483 H          1 MOL1         0.0987
      22    H15     20.217125   17.115109   19.832680 H          1 MOL1         0.0987
      23    H16     18.983137   17.477343   21.037150 H          1 MOL1         0.0987
@<TRIPOS>BOND
    1     1     2    1
    2     1     3    1
    3     1     4    1
    4     1     5    1
    5     5     6    1
    6     5     7    1
    7     5     8    1
    8     8     9    1
    9     8    10    1
   10     8    11    1
   11    11    12    1
   12    11    13    1
   13    11    14    1
   14    14    15    1
   15    14    16    1
   16    14    17    1
   17    17    18    1
   18    17    19    1
   19    17    20    1
   20    20    21    1
   21    20    22    1
   22    20    23    1
@<TRIPOS>SUBSTRUCTURE
       1 MOL1            1 RESIDUE      1      MOL     
@<SCITEGIC>MOL_PROPERTY
VM2 Rank
SciTegic.value.IntegerValue
89

@<SCITEGIC>MOL_PROPERTY
Conf_Id
SciTegic.value.IntegerValue
111

@<SCITEGIC>MOL_PROPERTY
Probability
SciTegic.value.DoubleValue
0.00

@<SCITEGIC>MOL_PROPERTY
Sum Probability
SciTegic.value.DoubleValue
100.00

@<SCITEGIC>MOL_PROPERTY
Delta G
SciTegic.value.DoubleValue
7.141

@<SCITEGIC>MOL_PROPERTY
G
SciTegic.value.DoubleValue
45.057

@<SCITEGIC>MOL_PROPERTY
E
SciTegic.value.DoubleValue
17.320

@<SCITEGIC>MOL_PROPERTY
-TS
SciTegic.value.DoubleValue
27.736

@<SCITEGIC>MOL_PROPERTY
U+W
SciTegic.value.DoubleValue
-1.459

@<SCITEGIC>MOL_PROPERTY
U
SciTegic.value.DoubleValue
54.309

@<SCITEGIC>MOL_PROPERTY
W
SciTegic.value.DoubleValue
-55.768

@<SCITEGIC>MOL_PROPERTY
W(PB)
SciTegic.value.DoubleValue
-57.775

@<SCITEGIC>MOL_PROPERTY
W(SA)
SciTegic.value.DoubleValue
2.007

@<SCITEGIC>MOL_PROPERTY
Valence
SciTegic.value.DoubleValue
6.918

@<SCITEGIC>MOL_PROPERTY
Coulomb
SciTegic.value.DoubleValue
47.202

@<SCITEGIC>MOL_PROPERTY
VdW
SciTegic.value.DoubleValue
0.189

@<SCITEGIC>MOL_PROPERTY
VdW6
SciTegic.value.DoubleValue
-7.842

@<SCITEGIC>MOL_PROPERTY
VdW12
SciTegic.value.DoubleValue
8.031

@<SCITEGIC>MOL_PROPERTY
Bond
SciTegic.value.DoubleValue
0.291

@<SCITEGIC>MOL_PROPERTY
Angle
SciTegic.value.DoubleValue
2.811

@<SCITEGIC>MOL_PROPERTY
Pdih
SciTegic.value.DoubleValue
3.817

@<SCITEGIC>MOL_PROPERTY
Idih
SciTegic.value.DoubleValue
0.000

@<SCITEGIC>MOL_PROPERTY
Tether
SciTegic.value.DoubleValue
0.000

@<TRIPOS>MOLECULE
guest-2_vm2.mol2 : vm2 ligand conformer 90
          23          22           1
SMALL
USER_CHARGES
 
@<TRIPOS>ATOM
       1    N1      19.903657   17.553383   24.168649 N.4        1 MOL1        -0.5940
       2    H1      19.316473   17.429063   23.339470 H          1 MOL1         0.3649
       3    H2      19.587867   16.877135   24.872345 H          1 MOL1         0.3649
       4    H3      20.858767   17.289756   23.907532 H          1 MOL1         0.3649
       5    C1      19.838569   18.975028   24.687476 C.3        1 MOL1         0.0207
       6    H4      20.511341   19.032097   25.547466 H          1 MOL1         0.0950
       7    H5      18.822031   19.165651   25.041779 H          1 MOL1         0.0950
       8    C2      20.240233   20.055863   23.661454 C.3        1 MOL1        -0.1415
       9    H6      20.485877   20.963002   24.229345 H          1 MOL1         0.0976
      10    H7      21.165925   19.780907   23.144170 H          1 MOL1         0.0976
      11    C3      19.121419   20.430593   22.654704 C.3        1 MOL1        -0.1375
      12    H8      19.427284   21.338828   22.117360 H          1 MOL1         0.0976
      13    H9      18.227066   20.717214   23.225159 H          1 MOL1         0.0976
      14    C4      18.712788   19.357337   21.609362 C.3        1 MOL1        -0.1375
      15    H10     18.353577   18.442389   22.093847 H          1 MOL1         0.0976
      16    H11     17.836424   19.754687   21.078515 H          1 MOL1         0.0976
      17    C5      19.787952   19.036002   20.538095 C.3        1 MOL1        -0.1350
      18    H12     20.388002   19.930435   20.320262 H          1 MOL1         0.0976
      19    H13     19.272445   18.786148   19.600047 H          1 MOL1         0.0976
      20    C6      20.711382   17.848794   20.894259 C.3        1 MOL1        -0.2365
      21    H14     21.349084   18.066484   21.756302 H          1 MOL1         0.0987
      22    H15     21.375750   17.620249   20.050774 H          1 MOL1         0.0987
      23    H16     20.128972   16.943665   21.108400 H          1 MOL1         0.0987
@<TRIPOS>BOND
    1     1     2    1
    2     1     3    1
    3     1     4    1
    4     1     5    1
    5     5     6    1
    6     5     7    1
    7     5     8    1
    8     8     9    1
    9     8    10    1
   10     8    11    1
   11    11    12    1
   12    11    13    1
   13    11    14    1
   14    14    15    1
   15    14    16    1
   16    14    17    1
   17    17    18    1
   18    17    19    1
   19    17    20    1
   20    20    21    1
   21    20    22    1
   22    20    23    1
@<TRIPOS>SUBSTRUCTURE
       1 MOL1            1 RESIDUE      1      MOL     
@<SCITEGIC>MOL_PROPERTY
VM2 Rank
SciTegic.value.IntegerValue
90

@<SCITEGIC>MOL_PROPERTY
Conf_Id
SciTegic.value.IntegerValue
893

@<SCITEGIC>MOL_PROPERTY
Probability
SciTegic.value.DoubleValue
0.00

@<SCITEGIC>MOL_PROPERTY
Sum Probability
SciTegic.value.DoubleValue
100.00

@<SCITEGIC>MOL_PROPERTY
Delta G
SciTegic.value.DoubleValue
7.858

@<SCITEGIC>MOL_PROPERTY
G
SciTegic.value.DoubleValue
45.774

@<SCITEGIC>MOL_PROPERTY
E
SciTegic.value.DoubleValue
17.502

@<SCITEGIC>MOL_PROPERTY
-TS
SciTegic.value.DoubleValue
28.272

@<SCITEGIC>MOL_PROPERTY
U+W
SciTegic.value.DoubleValue
-1.277

@<SCITEGIC>MOL_PROPERTY
U
SciTegic.value.DoubleValue
54.197

@<SCITEGIC>MOL_PROPERTY
W
SciTegic.value.DoubleValue
-55.474

@<SCITEGIC>MOL_PROPERTY
W(PB)
SciTegic.value.DoubleValue
-57.475

@<SCITEGIC>MOL_PROPERTY
W(SA)
SciTegic.value.DoubleValue
2.000

@<SCITEGIC>MOL_PROPERTY
Valence
SciTegic.value.DoubleValue
6.838

@<SCITEGIC>MOL_PROPERTY
Coulomb
SciTegic.value.DoubleValue
47.373

@<SCITEGIC>MOL_PROPERTY
VdW
SciTegic.value.DoubleValue
-0.014

@<SCITEGIC>MOL_PROPERTY
VdW6
SciTegic.value.DoubleValue
-8.198

@<SCITEGIC>MOL_PROPERTY
VdW12
SciTegic.value.DoubleValue
8.183

@<SCITEGIC>MOL_PROPERTY
Bond
SciTegic.value.DoubleValue
0.272

@<SCITEGIC>MOL_PROPERTY
Angle
SciTegic.value.DoubleValue
2.668

@<SCITEGIC>MOL_PROPERTY
Pdih
SciTegic.value.DoubleValue
3.899

@<SCITEGIC>MOL_PROPERTY
Idih
SciTegic.value.DoubleValue
0.000

@<SCITEGIC>MOL_PROPERTY
Tether
SciTegic.value.DoubleValue
0.000

