VeraChem MOL file


 23 22  0  0  0  0  0  0  0  0999 V2000     
   19.7414   18.6610   26.4278 N   0  3  0  0  0  0  0  0  0  0  0  0
   20.7321   18.4175   26.5284 H   0  0  0  0  0  0  0  0  0  0  0  0
   19.2107   17.7845   26.4591 H   0  0  0  0  0  0  0  0  0  0  0  0
   19.4803   19.1972   27.2623 H   0  0  0  0  0  0  0  0  0  0  0  0
   19.4763   19.4376   25.1540 C   0  0  0  0  0  0  0  0  0  0  0  0
   20.0477   20.3686   25.2013 H   0  0  0  0  0  0  0  0  0  0  0  0
   18.4124   19.6883   25.1268 H   0  0  0  0  0  0  0  0  0  0  0  0
   19.8579   18.6596   23.8821 C   0  0  0  0  0  0  0  0  0  0  0  0
   20.9233   18.3958   23.9215 H   0  0  0  0  0  0  0  0  0  0  0  0
   19.2937   17.7180   23.8472 H   0  0  0  0  0  0  0  0  0  0  0  0
   19.5729   19.4847   22.6077 C   0  0  0  0  0  0  0  0  0  0  0  0
   20.1350   20.4281   22.6490 H   0  0  0  0  0  0  0  0  0  0  0  0
   18.5072   19.7511   22.5748 H   0  0  0  0  0  0  0  0  0  0  0  0
   19.9525   18.7125   21.3237 C   0  0  0  0  0  0  0  0  0  0  0  0
   21.0181   18.4461   21.3564 H   0  0  0  0  0  0  0  0  0  0  0  0
   19.3905   17.7692   21.2823 H   0  0  0  0  0  0  0  0  0  0  0  0
   19.6673   19.5379   20.0493 C   0  0  0  0  0  0  0  0  0  0  0  0
   20.2293   20.4818   20.0848 H   0  0  0  0  0  0  0  0  0  0  0  0
   18.6018   19.8049   20.0107 H   0  0  0  0  0  0  0  0  0  0  0  0
   20.0477   18.7637   18.7693 C   0  0  0  0  0  0  0  0  0  0  0  0
   21.1163   18.5122   18.7629 H   0  0  0  0  0  0  0  0  0  0  0  0
   19.8380   19.3655   17.8755 H   0  0  0  0  0  0  0  0  0  0  0  0
   19.4761   17.8299   18.6882 H   0  0  0  0  0  0  0  0  0  0  0  0
  1  2  1  0  0  0  0
  1  3  1  0  0  0  0
  1  4  1  0  0  0  0
  1  5  1  0  0  0  0
  5  6  1  0  0  0  0
  5  7  1  0  0  0  0
  5  8  1  0  0  0  0
  8  9  1  0  0  0  0
  8 10  1  0  0  0  0
  8 11  1  0  0  0  0
 11 12  1  0  0  0  0
 11 13  1  0  0  0  0
 11 14  1  0  0  0  0
 14 15  1  0  0  0  0
 14 16  1  0  0  0  0
 14 17  1  0  0  0  0
 17 18  1  0  0  0  0
 17 19  1  0  0  0  0
 17 20  1  0  0  0  0
 20 21  1  0  0  0  0
 20 22  1  0  0  0  0
 20 23  1  0  0  0  0
M  END
> <VM2 Rank>
1

> <Conf_Id>
242

> <Probability>
11.98

> <Sum Probability>
11.98

> <Delta G>
0.000

> <G>
37.916

> <E>
10.396

> <-TS>
27.520

> <U+W>
-8.383

> <U>
46.604

> <W>
-54.986

> <W(PB)>
-57.162

> <W(SA)>
2.176

> <Valence>
1.727

> <Coulomb>
44.434

> <VdW>
0.443

> <VdW6>
-4.623

> <VdW12>
5.066

> <Bond>
0.112

> <Angle>
0.386

> <Pdih>
1.228

> <Idih>
0.000

> <Tether>
0.000

$$$$
VeraChem MOL file


 23 22  0  0  0  0  0  0  0  0999 V2000     
   20.4491   19.4573   25.7940 N   0  3  0  0  0  0  0  0  0  0  0  0
   20.8558   20.1752   25.1866 H   0  0  0  0  0  0  0  0  0  0  0  0
   21.1373   18.7018   25.8732 H   0  0  0  0  0  0  0  0  0  0  0  0
   20.3534   19.8733   26.7266 H   0  0  0  0  0  0  0  0  0  0  0  0
   19.1204   18.9564   25.2623 C   0  0  0  0  0  0  0  0  0  0  0  0
   18.4287   19.8024   25.2256 H   0  0  0  0  0  0  0  0  0  0  0  0
   18.7300   18.2283   25.9787 H   0  0  0  0  0  0  0  0  0  0  0  0
   19.2146   18.3026   23.8699 C   0  0  0  0  0  0  0  0  0  0  0  0
   19.9143   17.4570   23.9086 H   0  0  0  0  0  0  0  0  0  0  0  0
   18.2316   17.8843   23.6156 H   0  0  0  0  0  0  0  0  0  0  0  0
   19.6475   19.2996   22.7689 C   0  0  0  0  0  0  0  0  0  0  0  0
   20.6464   19.6957   22.9955 H   0  0  0  0  0  0  0  0  0  0  0  0
   18.9592   20.1562   22.7599 H   0  0  0  0  0  0  0  0  0  0  0  0
   19.6671   18.6391   21.3717 C   0  0  0  0  0  0  0  0  0  0  0  0
   20.3533   17.7808   21.3807 H   0  0  0  0  0  0  0  0  0  0  0  0
   18.6686   18.2449   21.1370 H   0  0  0  0  0  0  0  0  0  0  0  0
   20.0997   19.6326   20.2705 C   0  0  0  0  0  0  0  0  0  0  0  0
   21.0996   20.0276   20.4987 H   0  0  0  0  0  0  0  0  0  0  0  0
   19.4151   20.4922   20.2563 H   0  0  0  0  0  0  0  0  0  0  0  0
   20.1175   18.9694   18.8768 C   0  0  0  0  0  0  0  0  0  0  0  0
   20.8197   18.1260   18.8498 H   0  0  0  0  0  0  0  0  0  0  0  0
   20.4269   19.6899   18.1085 H   0  0  0  0  0  0  0  0  0  0  0  0
   19.1221   18.5943   18.6053 H   0  0  0  0  0  0  0  0  0  0  0  0
  1  2  1  0  0  0  0
  1  3  1  0  0  0  0
  1  4  1  0  0  0  0
  1  5  1  0  0  0  0
  5  6  1  0  0  0  0
  5  7  1  0  0  0  0
  5  8  1  0  0  0  0
  8  9  1  0  0  0  0
  8 10  1  0  0  0  0
  8 11  1  0  0  0  0
 11 12  1  0  0  0  0
 11 13  1  0  0  0  0
 11 14  1  0  0  0  0
 14 15  1  0  0  0  0
 14 16  1  0  0  0  0
 14 17  1  0  0  0  0
 17 18  1  0  0  0  0
 17 19  1  0  0  0  0
 17 20  1  0  0  0  0
 20 21  1  0  0  0  0
 20 22  1  0  0  0  0
 20 23  1  0  0  0  0
M  END
> <VM2 Rank>
2

> <Conf_Id>
674

> <Probability>
7.37

> <Sum Probability>
19.35

> <Delta G>
0.290

> <G>
38.206

> <E>
10.584

> <-TS>
27.622

> <U+W>
-8.195

> <U>
47.288

> <W>
-55.483

> <W(PB)>
-57.632

> <W(SA)>
2.149

> <Valence>
1.833

> <Coulomb>
44.908

> <VdW>
0.548

> <VdW6>
-5.142

> <VdW12>
5.689

> <Bond>
0.133

> <Angle>
0.431

> <Pdih>
1.269

> <Idih>
0.000

> <Tether>
0.000

$$$$
VeraChem MOL file


 23 22  0  0  0  0  0  0  0  0999 V2000     
   18.7299   18.7422   25.7155 N   0  3  0  0  0  0  0  0  0  0  0  0
   17.9834   18.9805   25.0555 H   0  0  0  0  0  0  0  0  0  0  0  0
   18.4302   19.0733   26.6388 H   0  0  0  0  0  0  0  0  0  0  0  0
   18.7754   17.7194   25.7654 H   0  0  0  0  0  0  0  0  0  0  0  0
   20.0586   19.3465   25.3051 C   0  0  0  0  0  0  0  0  0  0  0  0
   20.7924   19.0860   26.0727 H   0  0  0  0  0  0  0  0  0  0  0  0
   19.9482   20.4343   25.2950 H   0  0  0  0  0  0  0  0  0  0  0  0
   20.5632   18.8636   23.9314 C   0  0  0  0  0  0  0  0  0  0  0  0
   21.5692   19.2725   23.7678 H   0  0  0  0  0  0  0  0  0  0  0  0
   20.6677   17.7704   23.9429 H   0  0  0  0  0  0  0  0  0  0  0  0
   19.6390   19.2961   22.7685 C   0  0  0  0  0  0  0  0  0  0  0  0
   19.5165   20.3881   22.7854 H   0  0  0  0  0  0  0  0  0  0  0  0
   18.6397   18.8611   22.9040 H   0  0  0  0  0  0  0  0  0  0  0  0
   20.2012   18.8613   21.3960 C   0  0  0  0  0  0  0  0  0  0  0  0
   21.1994   19.2977   21.2523 H   0  0  0  0  0  0  0  0  0  0  0  0
   20.3265   17.7697   21.3795 H   0  0  0  0  0  0  0  0  0  0  0  0
   19.2795   19.2914   20.2331 C   0  0  0  0  0  0  0  0  0  0  0  0
   19.1527   20.3831   20.2443 H   0  0  0  0  0  0  0  0  0  0  0  0
   18.2803   18.8549   20.3703 H   0  0  0  0  0  0  0  0  0  0  0  0
   19.8446   18.8558   18.8644 C   0  0  0  0  0  0  0  0  0  0  0  0
   19.1769   19.1699   18.0516 H   0  0  0  0  0  0  0  0  0  0  0  0
   19.9508   17.7645   18.8103 H   0  0  0  0  0  0  0  0  0  0  0  0
   20.8300   19.3046   18.6832 H   0  0  0  0  0  0  0  0  0  0  0  0
  1  2  1  0  0  0  0
  1  3  1  0  0  0  0
  1  4  1  0  0  0  0
  1  5  1  0  0  0  0
  5  6  1  0  0  0  0
  5  7  1  0  0  0  0
  5  8  1  0  0  0  0
  8  9  1  0  0  0  0
  8 10  1  0  0  0  0
  8 11  1  0  0  0  0
 11 12  1  0  0  0  0
 11 13  1  0  0  0  0
 11 14  1  0  0  0  0
 14 15  1  0  0  0  0
 14 16  1  0  0  0  0
 14 17  1  0  0  0  0
 17 18  1  0  0  0  0
 17 19  1  0  0  0  0
 17 20  1  0  0  0  0
 20 21  1  0  0  0  0
 20 22  1  0  0  0  0
 20 23  1  0  0  0  0
M  END
> <VM2 Rank>
3

> <Conf_Id>
745

> <Probability>
7.16

> <Sum Probability>
26.51

> <Delta G>
0.307

> <G>
38.223

> <E>
10.600

> <-TS>
27.623

> <U+W>
-8.179

> <U>
47.288

> <W>
-55.467

> <W(PB)>
-57.600

> <W(SA)>
2.133

> <Valence>
1.833

> <Coulomb>
44.908

> <VdW>
0.548

> <VdW6>
-5.142

> <VdW12>
5.689

> <Bond>
0.133

> <Angle>
0.431

> <Pdih>
1.269

> <Idih>
0.000

> <Tether>
0.000

$$$$
VeraChem MOL file


 23 22  0  0  0  0  0  0  0  0999 V2000     
   19.5097   18.2599   26.0549 N   0  3  0  0  0  0  0  0  0  0  0  0
   20.4067   17.7707   26.1373 H   0  0  0  0  0  0  0  0  0  0  0  0
   18.7901   17.6264   26.4193 H   0  0  0  0  0  0  0  0  0  0  0  0
   19.5460   19.0650   26.6885 H   0  0  0  0  0  0  0  0  0  0  0  0
   19.2220   18.6768   24.6269 C   0  0  0  0  0  0  0  0  0  0  0  0
   18.2433   19.1639   24.6081 H   0  0  0  0  0  0  0  0  0  0  0  0
   19.1674   17.7709   24.0178 H   0  0  0  0  0  0  0  0  0  0  0  0
   20.2860   19.6299   24.0505 C   0  0  0  0  0  0  0  0  0  0  0  0
   20.3622   20.5150   24.6960 H   0  0  0  0  0  0  0  0  0  0  0  0
   21.2692   19.1410   24.0703 H   0  0  0  0  0  0  0  0  0  0  0  0
   19.9615   20.0868   22.6086 C   0  0  0  0  0  0  0  0  0  0  0  0
   20.7077   20.8316   22.2989 H   0  0  0  0  0  0  0  0  0  0  0  0
   18.9890   20.5983   22.5965 H   0  0  0  0  0  0  0  0  0  0  0  0
   19.9519   18.9222   21.5893 C   0  0  0  0  0  0  0  0  0  0  0  0
   20.9139   18.3926   21.6277 H   0  0  0  0  0  0  0  0  0  0  0  0
   19.1762   18.1932   21.8592 H   0  0  0  0  0  0  0  0  0  0  0  0
   19.6978   19.4219   20.1497 C   0  0  0  0  0  0  0  0  0  0  0  0
   20.4737   20.1465   19.8655 H   0  0  0  0  0  0  0  0  0  0  0  0
   18.7367   19.9532   20.1057 H   0  0  0  0  0  0  0  0  0  0  0  0
   19.6871   18.2595   19.1342 C   0  0  0  0  0  0  0  0  0  0  0  0
   20.6483   17.7291   19.1311 H   0  0  0  0  0  0  0  0  0  0  0  0
   19.5058   18.6339   18.1183 H   0  0  0  0  0  0  0  0  0  0  0  0
   18.8974   17.5347   19.3719 H   0  0  0  0  0  0  0  0  0  0  0  0
  1  2  1  0  0  0  0
  1  3  1  0  0  0  0
  1  4  1  0  0  0  0
  1  5  1  0  0  0  0
  5  6  1  0  0  0  0
  5  7  1  0  0  0  0
  5  8  1  0  0  0  0
  8  9  1  0  0  0  0
  8 10  1  0  0  0  0
  8 11  1  0  0  0  0
 11 12  1  0  0  0  0
 11 13  1  0  0  0  0
 11 14  1  0  0  0  0
 14 15  1  0  0  0  0
 14 16  1  0  0  0  0
 14 17  1  0  0  0  0
 17 18  1  0  0  0  0
 17 19  1  0  0  0  0
 17 20  1  0  0  0  0
 20 21  1  0  0  0  0
 20 22  1  0  0  0  0
 20 23  1  0  0  0  0
M  END
> <VM2 Rank>
4

> <Conf_Id>
707

> <Probability>
5.52

> <Sum Probability>
32.03

> <Delta G>
0.462

> <G>
38.379

> <E>
10.760

> <-TS>
27.618

> <U+W>
-8.019

> <U>
47.375

> <W>
-55.393

> <W(PB)>
-57.545

> <W(SA)>
2.152

> <Valence>
2.032

> <Coulomb>
44.843

> <VdW>
0.499

> <VdW6>
-5.218

> <VdW12>
5.717

> <Bond>
0.135

> <Angle>
0.514

> <Pdih>
1.383

> <Idih>
0.000

> <Tether>
0.000

$$$$
VeraChem MOL file


 23 22  0  0  0  0  0  0  0  0999 V2000     
   20.2169   18.5540   26.0871 N   0  3  0  0  0  0  0  0  0  0  0  0
   21.1423   18.6047   26.5265 H   0  0  0  0  0  0  0  0  0  0  0  0
   19.9271   17.5711   26.1154 H   0  0  0  0  0  0  0  0  0  0  0  0
   19.5723   19.0758   26.6897 H   0  0  0  0  0  0  0  0  0  0  0  0
   20.2344   19.0979   24.6730 C   0  0  0  0  0  0  0  0  0  0  0  0
   20.9613   18.5170   24.0995 H   0  0  0  0  0  0  0  0  0  0  0  0
   20.5782   20.1350   24.7145 H   0  0  0  0  0  0  0  0  0  0  0  0
   18.8575   19.0357   23.9854 C   0  0  0  0  0  0  0  0  0  0  0  0
   18.5118   17.9941   23.9446 H   0  0  0  0  0  0  0  0  0  0  0  0
   18.1274   19.5855   24.5942 H   0  0  0  0  0  0  0  0  0  0  0  0
   18.8736   19.6344   22.5590 C   0  0  0  0  0  0  0  0  0  0  0  0
   19.1952   20.6841   22.6060 H   0  0  0  0  0  0  0  0  0  0  0  0
   17.8465   19.6416   22.1685 H   0  0  0  0  0  0  0  0  0  0  0  0
   19.7839   18.8524   21.5816 C   0  0  0  0  0  0  0  0  0  0  0  0
   20.8236   18.8785   21.9343 H   0  0  0  0  0  0  0  0  0  0  0  0
   19.4806   17.7964   21.5624 H   0  0  0  0  0  0  0  0  0  0  0  0
   19.7202   19.4312   20.1507 C   0  0  0  0  0  0  0  0  0  0  0  0
   20.0222   20.4879   20.1642 H   0  0  0  0  0  0  0  0  0  0  0  0
   18.6846   19.4023   19.7839 H   0  0  0  0  0  0  0  0  0  0  0  0
   20.6295   18.6514   19.1772 C   0  0  0  0  0  0  0  0  0  0  0  0
   20.5705   19.0766   18.1669 H   0  0  0  0  0  0  0  0  0  0  0  0
   20.3304   17.5968   19.1167 H   0  0  0  0  0  0  0  0  0  0  0  0
   21.6784   18.6914   19.4986 H   0  0  0  0  0  0  0  0  0  0  0  0
  1  2  1  0  0  0  0
  1  3  1  0  0  0  0
  1  4  1  0  0  0  0
  1  5  1  0  0  0  0
  5  6  1  0  0  0  0
  5  7  1  0  0  0  0
  5  8  1  0  0  0  0
  8  9  1  0  0  0  0
  8 10  1  0  0  0  0
  8 11  1  0  0  0  0
 11 12  1  0  0  0  0
 11 13  1  0  0  0  0
 11 14  1  0  0  0  0
 14 15  1  0  0  0  0
 14 16  1  0  0  0  0
 14 17  1  0  0  0  0
 17 18  1  0  0  0  0
 17 19  1  0  0  0  0
 17 20  1  0  0  0  0
 20 21  1  0  0  0  0
 20 22  1  0  0  0  0
 20 23  1  0  0  0  0
M  END
> <VM2 Rank>
5

> <Conf_Id>
692

> <Probability>
4.93

> <Sum Probability>
36.95

> <Delta G>
0.530

> <G>
38.446

> <E>
10.828

> <-TS>
27.618

> <U+W>
-7.951

> <U>
47.375

> <W>
-55.326

> <W(PB)>
-57.492

> <W(SA)>
2.166

> <Valence>
2.032

> <Coulomb>
44.843

> <VdW>
0.500

> <VdW6>
-5.218

> <VdW12>
5.718

> <Bond>
0.135

> <Angle>
0.514

> <Pdih>
1.383

> <Idih>
0.000

> <Tether>
0.000

$$$$
VeraChem MOL file


 23 22  0  0  0  0  0  0  0  0999 V2000     
   19.5474   18.7522   26.3216 N   0  3  0  0  0  0  0  0  0  0  0  0
   18.8411   18.9694   27.0330 H   0  0  0  0  0  0  0  0  0  0  0  0
   20.4083   19.2340   26.6000 H   0  0  0  0  0  0  0  0  0  0  0  0
   19.7318   17.7457   26.3829 H   0  0  0  0  0  0  0  0  0  0  0  0
   19.0936   19.1608   24.9349 C   0  0  0  0  0  0  0  0  0  0  0  0
   18.8875   20.2345   24.9499 H   0  0  0  0  0  0  0  0  0  0  0  0
   18.1603   18.6347   24.7165 H   0  0  0  0  0  0  0  0  0  0  0  0
   20.1323   18.8479   23.8432 C   0  0  0  0  0  0  0  0  0  0  0  0
   21.0728   19.3650   24.0758 H   0  0  0  0  0  0  0  0  0  0  0  0
   20.3480   17.7711   23.8423 H   0  0  0  0  0  0  0  0  0  0  0  0
   19.6322   19.2790   22.4466 C   0  0  0  0  0  0  0  0  0  0  0  0
   19.4160   20.3564   22.4517 H   0  0  0  0  0  0  0  0  0  0  0  0
   18.6865   18.7648   22.2299 H   0  0  0  0  0  0  0  0  0  0  0  0
   20.6695   18.9645   21.3418 C   0  0  0  0  0  0  0  0  0  0  0  0
   21.6298   19.4268   21.6089 H   0  0  0  0  0  0  0  0  0  0  0  0
   20.8494   17.8814   21.2995 H   0  0  0  0  0  0  0  0  0  0  0  0
   20.2524   19.4739   19.9408 C   0  0  0  0  0  0  0  0  0  0  0  0
   21.0845   19.3064   19.2427 H   0  0  0  0  0  0  0  0  0  0  0  0
   20.0925   20.5607   19.9728 H   0  0  0  0  0  0  0  0  0  0  0  0
   18.9887   18.7787   19.3850 C   0  0  0  0  0  0  0  0  0  0  0  0
   18.7903   19.1077   18.3567 H   0  0  0  0  0  0  0  0  0  0  0  0
   18.1009   19.0167   19.9838 H   0  0  0  0  0  0  0  0  0  0  0  0
   19.1121   17.6880   19.3703 H   0  0  0  0  0  0  0  0  0  0  0  0
  1  2  1  0  0  0  0
  1  3  1  0  0  0  0
  1  4  1  0  0  0  0
  1  5  1  0  0  0  0
  5  6  1  0  0  0  0
  5  7  1  0  0  0  0
  5  8  1  0  0  0  0
  8  9  1  0  0  0  0
  8 10  1  0  0  0  0
  8 11  1  0  0  0  0
 11 12  1  0  0  0  0
 11 13  1  0  0  0  0
 11 14  1  0  0  0  0
 14 15  1  0  0  0  0
 14 16  1  0  0  0  0
 14 17  1  0  0  0  0
 17 18  1  0  0  0  0
 17 19  1  0  0  0  0
 17 20  1  0  0  0  0
 20 21  1  0  0  0  0
 20 22  1  0  0  0  0
 20 23  1  0  0  0  0
M  END
> <VM2 Rank>
6

> <Conf_Id>
229

> <Probability>
4.33

> <Sum Probability>
41.29

> <Delta G>
0.606

> <G>
38.523

> <E>
10.892

> <-TS>
27.630

> <U+W>
-7.887

> <U>
47.264

> <W>
-55.151

> <W(PB)>
-57.313

> <W(SA)>
2.162

> <Valence>
2.234

> <Coulomb>
44.451

> <VdW>
0.580

> <VdW6>
-5.234

> <VdW12>
5.814

> <Bond>
0.148

> <Angle>
0.630

> <Pdih>
1.456

> <Idih>
0.000

> <Tether>
0.000

$$$$
VeraChem MOL file


 23 22  0  0  0  0  0  0  0  0999 V2000     
   19.8213   18.8660   26.3341 N   0  3  0  0  0  0  0  0  0  0  0  0
   20.3998   18.0234   26.4132 H   0  0  0  0  0  0  0  0  0  0  0  0
   18.8543   18.5872   26.5292 H   0  0  0  0  0  0  0  0  0  0  0  0
   20.1081   19.4962   27.0908 H   0  0  0  0  0  0  0  0  0  0  0  0
   19.9580   19.5203   24.9744 C   0  0  0  0  0  0  0  0  0  0  0  0
   21.0025   19.8171   24.8461 H   0  0  0  0  0  0  0  0  0  0  0  0
   19.3413   20.4232   24.9708 H   0  0  0  0  0  0  0  0  0  0  0  0
   19.5351   18.5995   23.8160 C   0  0  0  0  0  0  0  0  0  0  0  0
   20.1461   17.6872   23.8330 H   0  0  0  0  0  0  0  0  0  0  0  0
   18.4908   18.2909   23.9581 H   0  0  0  0  0  0  0  0  0  0  0  0
   19.6892   19.3029   22.4493 C   0  0  0  0  0  0  0  0  0  0  0  0
   20.7339   19.6165   22.3232 H   0  0  0  0  0  0  0  0  0  0  0  0
   19.0779   20.2159   22.4364 H   0  0  0  0  0  0  0  0  0  0  0  0
   19.2693   18.3823   21.2780 C   0  0  0  0  0  0  0  0  0  0  0  0
   19.9129   17.4921   21.2568 H   0  0  0  0  0  0  0  0  0  0  0  0
   18.2470   18.0202   21.4547 H   0  0  0  0  0  0  0  0  0  0  0  0
   19.3103   19.0822   19.8979 C   0  0  0  0  0  0  0  0  0  0  0  0
   18.6509   19.9613   19.9071 H   0  0  0  0  0  0  0  0  0  0  0  0
   18.8987   18.3975   19.1431 H   0  0  0  0  0  0  0  0  0  0  0  0
   20.7328   19.5038   19.4644 C   0  0  0  0  0  0  0  0  0  0  0  0
   21.4192   18.6472   19.4754 H   0  0  0  0  0  0  0  0  0  0  0  0
   21.1413   20.2808   20.1222 H   0  0  0  0  0  0  0  0  0  0  0  0
   20.7190   19.9094   18.4445 H   0  0  0  0  0  0  0  0  0  0  0  0
  1  2  1  0  0  0  0
  1  3  1  0  0  0  0
  1  4  1  0  0  0  0
  1  5  1  0  0  0  0
  5  6  1  0  0  0  0
  5  7  1  0  0  0  0
  5  8  1  0  0  0  0
  8  9  1  0  0  0  0
  8 10  1  0  0  0  0
  8 11  1  0  0  0  0
 11 12  1  0  0  0  0
 11 13  1  0  0  0  0
 11 14  1  0  0  0  0
 14 15  1  0  0  0  0
 14 16  1  0  0  0  0
 14 17  1  0  0  0  0
 17 18  1  0  0  0  0
 17 19  1  0  0  0  0
 17 20  1  0  0  0  0
 20 21  1  0  0  0  0
 20 22  1  0  0  0  0
 20 23  1  0  0  0  0
M  END
> <VM2 Rank>
7

> <Conf_Id>
714

> <Probability>
4.10

> <Sum Probability>
45.39

> <Delta G>
0.639

> <G>
38.555

> <E>
10.925

> <-TS>
27.630

> <U+W>
-7.854

> <U>
47.264

> <W>
-55.118

> <W(PB)>
-57.284

> <W(SA)>
2.165

> <Valence>
2.234

> <Coulomb>
44.451

> <VdW>
0.580

> <VdW6>
-5.234

> <VdW12>
5.814

> <Bond>
0.148

> <Angle>
0.630

> <Pdih>
1.457

> <Idih>
0.000

> <Tether>
0.000

$$$$
VeraChem MOL file


 23 22  0  0  0  0  0  0  0  0999 V2000     
   19.3992   18.2118   26.0667 N   0  3  0  0  0  0  0  0  0  0  0  0
   19.1879   18.5587   27.0085 H   0  0  0  0  0  0  0  0  0  0  0  0
   20.2615   17.6620   26.1385 H   0  0  0  0  0  0  0  0  0  0  0  0
   18.6476   17.5625   25.8129 H   0  0  0  0  0  0  0  0  0  0  0  0
   19.5314   19.3429   25.0670 C   0  0  0  0  0  0  0  0  0  0  0  0
   20.3260   20.0088   25.4143 H   0  0  0  0  0  0  0  0  0  0  0  0
   18.5916   19.9017   25.0635 H   0  0  0  0  0  0  0  0  0  0  0  0
   19.8496   18.8557   23.6422 C   0  0  0  0  0  0  0  0  0  0  0  0
   20.7856   18.2817   23.6538 H   0  0  0  0  0  0  0  0  0  0  0  0
   19.0554   18.1743   23.3124 H   0  0  0  0  0  0  0  0  0  0  0  0
   19.9779   20.0417   22.6573 C   0  0  0  0  0  0  0  0  0  0  0  0
   20.7195   20.7517   23.0492 H   0  0  0  0  0  0  0  0  0  0  0  0
   19.0253   20.5873   22.6082 H   0  0  0  0  0  0  0  0  0  0  0  0
   20.4085   19.6197   21.2308 C   0  0  0  0  0  0  0  0  0  0  0  0
   20.5872   20.5277   20.6384 H   0  0  0  0  0  0  0  0  0  0  0  0
   21.3695   19.0890   21.2778 H   0  0  0  0  0  0  0  0  0  0  0  0
   19.3632   18.7422   20.5020 C   0  0  0  0  0  0  0  0  0  0  0  0
   18.3886   19.2499   20.5004 H   0  0  0  0  0  0  0  0  0  0  0  0
   19.2269   17.7922   21.0354 H   0  0  0  0  0  0  0  0  0  0  0  0
   19.7861   18.4430   19.0479 C   0  0  0  0  0  0  0  0  0  0  0  0
   19.0358   17.8178   18.5468 H   0  0  0  0  0  0  0  0  0  0  0  0
   20.7445   17.9085   19.0178 H   0  0  0  0  0  0  0  0  0  0  0  0
   19.8930   19.3695   18.4688 H   0  0  0  0  0  0  0  0  0  0  0  0
  1  2  1  0  0  0  0
  1  3  1  0  0  0  0
  1  4  1  0  0  0  0
  1  5  1  0  0  0  0
  5  6  1  0  0  0  0
  5  7  1  0  0  0  0
  5  8  1  0  0  0  0
  8  9  1  0  0  0  0
  8 10  1  0  0  0  0
  8 11  1  0  0  0  0
 11 12  1  0  0  0  0
 11 13  1  0  0  0  0
 11 14  1  0  0  0  0
 14 15  1  0  0  0  0
 14 16  1  0  0  0  0
 14 17  1  0  0  0  0
 17 18  1  0  0  0  0
 17 19  1  0  0  0  0
 17 20  1  0  0  0  0
 20 21  1  0  0  0  0
 20 22  1  0  0  0  0
 20 23  1  0  0  0  0
M  END
> <VM2 Rank>
8

> <Conf_Id>
679

> <Probability>
3.53

> <Sum Probability>
48.92

> <Delta G>
0.728

> <G>
38.644

> <E>
11.025

> <-TS>
27.619

> <U+W>
-7.754

> <U>
47.562

> <W>
-55.316

> <W(PB)>
-57.472

> <W(SA)>
2.156

> <Valence>
2.273

> <Coulomb>
44.723

> <VdW>
0.566

> <VdW6>
-5.266

> <VdW12>
5.832

> <Bond>
0.151

> <Angle>
0.657

> <Pdih>
1.466

> <Idih>
0.000

> <Tether>
0.000

$$$$
VeraChem MOL file


 23 22  0  0  0  0  0  0  0  0999 V2000     
   20.3275   18.5979   26.1090 N   0  3  0  0  0  0  0  0  0  0  0  0
   21.3344   18.6801   25.9355 H   0  0  0  0  0  0  0  0  0  0  0  0
   20.1059   17.5972   26.1314 H   0  0  0  0  0  0  0  0  0  0  0  0
   20.1571   18.9618   27.0527 H   0  0  0  0  0  0  0  0  0  0  0  0
   19.5115   19.3346   25.0661 C   0  0  0  0  0  0  0  0  0  0  0  0
   19.7758   20.3943   25.1176 H   0  0  0  0  0  0  0  0  0  0  0  0
   18.4553   19.2306   25.3290 H   0  0  0  0  0  0  0  0  0  0  0  0
   19.7437   18.8117   23.6374 C   0  0  0  0  0  0  0  0  0  0  0  0
   20.8092   18.9041   23.3924 H   0  0  0  0  0  0  0  0  0  0  0  0
   19.4924   17.7436   23.5948 H   0  0  0  0  0  0  0  0  0  0  0  0
   18.8903   19.5893   22.6078 C   0  0  0  0  0  0  0  0  0  0  0  0
   19.1764   20.6502   22.6150 H   0  0  0  0  0  0  0  0  0  0  0  0
   17.8366   19.5524   22.9178 H   0  0  0  0  0  0  0  0  0  0  0  0
   18.9975   19.0326   21.1666 C   0  0  0  0  0  0  0  0  0  0  0  0
   18.6951   17.9763   21.1561 H   0  0  0  0  0  0  0  0  0  0  0  0
   18.2750   19.5657   20.5331 H   0  0  0  0  0  0  0  0  0  0  0  0
   20.4089   19.1774   20.5496 C   0  0  0  0  0  0  0  0  0  0  0  0
   21.1360   18.5869   21.1225 H   0  0  0  0  0  0  0  0  0  0  0  0
   20.7334   20.2258   20.6069 H   0  0  0  0  0  0  0  0  0  0  0  0
   20.4366   18.7135   19.0776 C   0  0  0  0  0  0  0  0  0  0  0  0
   21.4448   18.8200   18.6565 H   0  0  0  0  0  0  0  0  0  0  0  0
   19.7503   19.3097   18.4622 H   0  0  0  0  0  0  0  0  0  0  0  0
   20.1450   17.6587   18.9908 H   0  0  0  0  0  0  0  0  0  0  0  0
  1  2  1  0  0  0  0
  1  3  1  0  0  0  0
  1  4  1  0  0  0  0
  1  5  1  0  0  0  0
  5  6  1  0  0  0  0
  5  7  1  0  0  0  0
  5  8  1  0  0  0  0
  8  9  1  0  0  0  0
  8 10  1  0  0  0  0
  8 11  1  0  0  0  0
 11 12  1  0  0  0  0
 11 13  1  0  0  0  0
 11 14  1  0  0  0  0
 14 15  1  0  0  0  0
 14 16  1  0  0  0  0
 14 17  1  0  0  0  0
 17 18  1  0  0  0  0
 17 19  1  0  0  0  0
 17 20  1  0  0  0  0
 20 21  1  0  0  0  0
 20 22  1  0  0  0  0
 20 23  1  0  0  0  0
M  END
> <VM2 Rank>
9

> <Conf_Id>
511

> <Probability>
3.49

> <Sum Probability>
52.41

> <Delta G>
0.735

> <G>
38.652

> <E>
11.032

> <-TS>
27.619

> <U+W>
-7.747

> <U>
47.562

> <W>
-55.309

> <W(PB)>
-57.453

> <W(SA)>
2.144

> <Valence>
2.273

> <Coulomb>
44.723

> <VdW>
0.566

> <VdW6>
-5.266

> <VdW12>
5.832

> <Bond>
0.151

> <Angle>
0.657

> <Pdih>
1.466

> <Idih>
0.000

> <Tether>
0.000

$$$$
VeraChem MOL file


 23 22  0  0  0  0  0  0  0  0999 V2000     
   19.8905   19.9726   25.5968 N   0  3  0  0  0  0  0  0  0  0  0  0
   18.9052   20.1710   25.7983 H   0  0  0  0  0  0  0  0  0  0  0  0
   20.2016   20.6578   24.9016 H   0  0  0  0  0  0  0  0  0  0  0  0
   20.4152   20.1600   26.4579 H   0  0  0  0  0  0  0  0  0  0  0  0
   20.0916   18.5494   25.1138 C   0  0  0  0  0  0  0  0  0  0  0  0
   19.7775   17.8788   25.9183 H   0  0  0  0  0  0  0  0  0  0  0  0
   21.1606   18.3972   24.9416 H   0  0  0  0  0  0  0  0  0  0  0  0
   19.3064   18.2115   23.8316 C   0  0  0  0  0  0  0  0  0  0  0  0
   19.4342   17.1420   23.6176 H   0  0  0  0  0  0  0  0  0  0  0  0
   18.2339   18.3700   24.0065 H   0  0  0  0  0  0  0  0  0  0  0  0
   19.7731   19.0373   22.6092 C   0  0  0  0  0  0  0  0  0  0  0  0
   20.8533   18.8956   22.4725 H   0  0  0  0  0  0  0  0  0  0  0  0
   19.6113   20.1070   22.7974 H   0  0  0  0  0  0  0  0  0  0  0  0
   19.0207   18.6273   21.3203 C   0  0  0  0  0  0  0  0  0  0  0  0
   19.2235   17.5718   21.0922 H   0  0  0  0  0  0  0  0  0  0  0  0
   17.9388   18.7028   21.4970 H   0  0  0  0  0  0  0  0  0  0  0  0
   19.3797   19.4990   20.0925 C   0  0  0  0  0  0  0  0  0  0  0  0
   19.1561   20.5534   20.3069 H   0  0  0  0  0  0  0  0  0  0  0  0
   18.7297   19.2116   19.2542 H   0  0  0  0  0  0  0  0  0  0  0  0
   20.8541   19.3599   19.6498 C   0  0  0  0  0  0  0  0  0  0  0  0
   21.0321   19.9237   18.7249 H   0  0  0  0  0  0  0  0  0  0  0  0
   21.1113   18.3102   19.4575 H   0  0  0  0  0  0  0  0  0  0  0  0
   21.5421   19.7492   20.4103 H   0  0  0  0  0  0  0  0  0  0  0  0
  1  2  1  0  0  0  0
  1  3  1  0  0  0  0
  1  4  1  0  0  0  0
  1  5  1  0  0  0  0
  5  6  1  0  0  0  0
  5  7  1  0  0  0  0
  5  8  1  0  0  0  0
  8  9  1  0  0  0  0
  8 10  1  0  0  0  0
  8 11  1  0  0  0  0
 11 12  1  0  0  0  0
 11 13  1  0  0  0  0
 11 14  1  0  0  0  0
 14 15  1  0  0  0  0
 14 16  1  0  0  0  0
 14 17  1  0  0  0  0
 17 18  1  0  0  0  0
 17 19  1  0  0  0  0
 17 20  1  0  0  0  0
 20 21  1  0  0  0  0
 20 22  1  0  0  0  0
 20 23  1  0  0  0  0
M  END
> <VM2 Rank>
10

> <Conf_Id>
713

> <Probability>
2.74

> <Sum Probability>
55.16

> <Delta G>
0.879

> <G>
38.795

> <E>
11.061

> <-TS>
27.734

> <U+W>
-7.718

> <U>
47.955

> <W>
-55.674

> <W(PB)>
-57.794

> <W(SA)>
2.120

> <Valence>
2.340

> <Coulomb>
44.939

> <VdW>
0.677

> <VdW6>
-5.763

> <VdW12>
6.440

> <Bond>
0.168

> <Angle>
0.673

> <Pdih>
1.499

> <Idih>
0.000

> <Tether>
0.000

$$$$
VeraChem MOL file


 23 22  0  0  0  0  0  0  0  0999 V2000     
   19.1467   17.8993   25.3647 N   0  3  0  0  0  0  0  0  0  0  0  0
   19.9694   17.2933   25.4456 H   0  0  0  0  0  0  0  0  0  0  0  0
   18.5890   17.5503   24.5794 H   0  0  0  0  0  0  0  0  0  0  0  0
   18.5885   17.7602   26.2138 H   0  0  0  0  0  0  0  0  0  0  0  0
   19.5339   19.3535   25.1782 C   0  0  0  0  0  0  0  0  0  0  0  0
   20.0873   19.6656   26.0681 H   0  0  0  0  0  0  0  0  0  0  0  0
   18.6160   19.9449   25.1234 H   0  0  0  0  0  0  0  0  0  0  0  0
   20.3935   19.6125   23.9256 C   0  0  0  0  0  0  0  0  0  0  0  0
   20.7076   20.6648   23.9324 H   0  0  0  0  0  0  0  0  0  0  0  0
   21.3110   19.0115   23.9797 H   0  0  0  0  0  0  0  0  0  0  0  0
   19.6389   19.3110   22.6089 C   0  0  0  0  0  0  0  0  0  0  0  0
   18.7096   19.8965   22.5776 H   0  0  0  0  0  0  0  0  0  0  0  0
   19.3514   18.2524   22.5860 H   0  0  0  0  0  0  0  0  0  0  0  0
   20.5001   19.6423   21.3663 C   0  0  0  0  0  0  0  0  0  0  0  0
   20.8381   20.6858   21.4313 H   0  0  0  0  0  0  0  0  0  0  0  0
   21.4078   19.0231   21.3686 H   0  0  0  0  0  0  0  0  0  0  0  0
   19.7489   19.4529   20.0262 C   0  0  0  0  0  0  0  0  0  0  0  0
   20.3911   19.8098   19.2088 H   0  0  0  0  0  0  0  0  0  0  0  0
   18.8512   20.0868   20.0103 H   0  0  0  0  0  0  0  0  0  0  0  0
   19.3541   17.9854   19.7442 C   0  0  0  0  0  0  0  0  0  0  0  0
   20.2305   17.3257   19.7855 H   0  0  0  0  0  0  0  0  0  0  0  0
   18.9111   17.8923   18.7441 H   0  0  0  0  0  0  0  0  0  0  0  0
   18.6140   17.6205   20.4670 H   0  0  0  0  0  0  0  0  0  0  0  0
  1  2  1  0  0  0  0
  1  3  1  0  0  0  0
  1  4  1  0  0  0  0
  1  5  1  0  0  0  0
  5  6  1  0  0  0  0
  5  7  1  0  0  0  0
  5  8  1  0  0  0  0
  8  9  1  0  0  0  0
  8 10  1  0  0  0  0
  8 11  1  0  0  0  0
 11 12  1  0  0  0  0
 11 13  1  0  0  0  0
 11 14  1  0  0  0  0
 14 15  1  0  0  0  0
 14 16  1  0  0  0  0
 14 17  1  0  0  0  0
 17 18  1  0  0  0  0
 17 19  1  0  0  0  0
 17 20  1  0  0  0  0
 20 21  1  0  0  0  0
 20 22  1  0  0  0  0
 20 23  1  0  0  0  0
M  END
> <VM2 Rank>
11

> <Conf_Id>
777

> <Probability>
2.57

> <Sum Probability>
57.72

> <Delta G>
0.919

> <G>
38.835

> <E>
11.107

> <-TS>
27.728

> <U+W>
-7.672

> <U>
48.083

> <W>
-55.756

> <W(PB)>
-57.894

> <W(SA)>
2.138

> <Valence>
2.338

> <Coulomb>
45.069

> <VdW>
0.676

> <VdW6>
-5.773

> <VdW12>
6.449

> <Bond>
0.170

> <Angle>
0.671

> <Pdih>
1.498

> <Idih>
0.000

> <Tether>
0.000

$$$$
VeraChem MOL file


 23 22  0  0  0  0  0  0  0  0999 V2000     
   20.4907   18.7126   25.6758 N   0  3  0  0  0  0  0  0  0  0  0  0
   20.5046   18.8053   26.6971 H   0  0  0  0  0  0  0  0  0  0  0  0
   21.1578   19.3956   25.3042 H   0  0  0  0  0  0  0  0  0  0  0  0
   20.8561   17.7807   25.4554 H   0  0  0  0  0  0  0  0  0  0  0  0
   19.0990   18.9208   25.1108 C   0  0  0  0  0  0  0  0  0  0  0  0
   18.7604   19.9188   25.4021 H   0  0  0  0  0  0  0  0  0  0  0  0
   18.4375   18.1867   25.5788 H   0  0  0  0  0  0  0  0  0  0  0  0
   19.0233   18.7740   23.5788 C   0  0  0  0  0  0  0  0  0  0  0  0
   19.3623   17.7689   23.2978 H   0  0  0  0  0  0  0  0  0  0  0  0
   17.9709   18.8484   23.2742 H   0  0  0  0  0  0  0  0  0  0  0  0
   19.8506   19.8530   22.8362 C   0  0  0  0  0  0  0  0  0  0  0  0
   20.9182   19.7319   23.0631 H   0  0  0  0  0  0  0  0  0  0  0  0
   19.5641   20.8445   23.2139 H   0  0  0  0  0  0  0  0  0  0  0  0
   19.6496   19.8361   21.3008 C   0  0  0  0  0  0  0  0  0  0  0  0
   18.5858   19.9802   21.0666 H   0  0  0  0  0  0  0  0  0  0  0  0
   20.1787   20.6978   20.8708 H   0  0  0  0  0  0  0  0  0  0  0  0
   20.1622   18.5426   20.6243 C   0  0  0  0  0  0  0  0  0  0  0  0
   19.5934   17.6751   20.9844 H   0  0  0  0  0  0  0  0  0  0  0  0
   21.2126   18.3714   20.8984 H   0  0  0  0  0  0  0  0  0  0  0  0
   20.0407   18.6178   19.0873 C   0  0  0  0  0  0  0  0  0  0  0  0
   18.9960   18.7590   18.7806 H   0  0  0  0  0  0  0  0  0  0  0  0
   20.4056   17.6920   18.6239 H   0  0  0  0  0  0  0  0  0  0  0  0
   20.6309   19.4511   18.6844 H   0  0  0  0  0  0  0  0  0  0  0  0
  1  2  1  0  0  0  0
  1  3  1  0  0  0  0
  1  4  1  0  0  0  0
  1  5  1  0  0  0  0
  5  6  1  0  0  0  0
  5  7  1  0  0  0  0
  5  8  1  0  0  0  0
  8  9  1  0  0  0  0
  8 10  1  0  0  0  0
  8 11  1  0  0  0  0
 11 12  1  0  0  0  0
 11 13  1  0  0  0  0
 11 14  1  0  0  0  0
 14 15  1  0  0  0  0
 14 16  1  0  0  0  0
 14 17  1  0  0  0  0
 17 18  1  0  0  0  0
 17 19  1  0  0  0  0
 17 20  1  0  0  0  0
 20 21  1  0  0  0  0
 20 22  1  0  0  0  0
 20 23  1  0  0  0  0
M  END
> <VM2 Rank>
12

> <Conf_Id>
930

> <Probability>
2.47

> <Sum Probability>
60.19

> <Delta G>
0.942

> <G>
38.859

> <E>
11.126

> <-TS>
27.732

> <U+W>
-7.653

> <U>
48.113

> <W>
-55.766

> <W(PB)>
-57.863

> <W(SA)>
2.097

> <Valence>
2.372

> <Coulomb>
45.091

> <VdW>
0.650

> <VdW6>
-5.797

> <VdW12>
6.447

> <Bond>
0.172

> <Angle>
0.675

> <Pdih>
1.524

> <Idih>
0.000

> <Tether>
0.000

$$$$
VeraChem MOL file


 23 22  0  0  0  0  0  0  0  0999 V2000     
   18.9992   18.0355   25.1603 N   0  3  0  0  0  0  0  0  0  0  0  0
   18.4310   17.8523   24.3277 H   0  0  0  0  0  0  0  0  0  0  0  0
   18.4353   18.6136   25.7914 H   0  0  0  0  0  0  0  0  0  0  0  0
   19.1452   17.1352   25.6294 H   0  0  0  0  0  0  0  0  0  0  0  0
   20.3122   18.7053   24.8055 C   0  0  0  0  0  0  0  0  0  0  0  0
   20.8751   18.0272   24.1590 H   0  0  0  0  0  0  0  0  0  0  0  0
   20.8786   18.8384   25.7312 H   0  0  0  0  0  0  0  0  0  0  0  0
   20.1430   20.0709   24.1088 C   0  0  0  0  0  0  0  0  0  0  0  0
   19.6169   20.7568   24.7860 H   0  0  0  0  0  0  0  0  0  0  0  0
   21.1371   20.5073   23.9436 H   0  0  0  0  0  0  0  0  0  0  0  0
   19.3850   20.0020   22.7591 C   0  0  0  0  0  0  0  0  0  0  0  0
   19.2952   21.0207   22.3570 H   0  0  0  0  0  0  0  0  0  0  0  0
   18.3585   19.6485   22.9246 H   0  0  0  0  0  0  0  0  0  0  0  0
   20.0859   19.1037   21.7117 C   0  0  0  0  0  0  0  0  0  0  0  0
   21.1199   19.4464   21.5677 H   0  0  0  0  0  0  0  0  0  0  0  0
   20.1417   18.0705   22.0793 H   0  0  0  0  0  0  0  0  0  0  0  0
   19.3459   19.1188   20.3557 C   0  0  0  0  0  0  0  0  0  0  0  0
   19.2927   20.1477   19.9730 H   0  0  0  0  0  0  0  0  0  0  0  0
   18.3101   18.7784   20.4942 H   0  0  0  0  0  0  0  0  0  0  0  0
   20.0447   18.2207   19.3128 C   0  0  0  0  0  0  0  0  0  0  0  0
   21.0731   18.5573   19.1279 H   0  0  0  0  0  0  0  0  0  0  0  0
   19.5054   18.2448   18.3570 H   0  0  0  0  0  0  0  0  0  0  0  0
   20.0823   17.1773   19.6521 H   0  0  0  0  0  0  0  0  0  0  0  0
  1  2  1  0  0  0  0
  1  3  1  0  0  0  0
  1  4  1  0  0  0  0
  1  5  1  0  0  0  0
  5  6  1  0  0  0  0
  5  7  1  0  0  0  0
  5  8  1  0  0  0  0
  8  9  1  0  0  0  0
  8 10  1  0  0  0  0
  8 11  1  0  0  0  0
 11 12  1  0  0  0  0
 11 13  1  0  0  0  0
 11 14  1  0  0  0  0
 14 15  1  0  0  0  0
 14 16  1  0  0  0  0
 14 17  1  0  0  0  0
 17 18  1  0  0  0  0
 17 19  1  0  0  0  0
 17 20  1  0  0  0  0
 20 21  1  0  0  0  0
 20 22  1  0  0  0  0
 20 23  1  0  0  0  0
M  END
> <VM2 Rank>
13

> <Conf_Id>
192

> <Probability>
2.44

> <Sum Probability>
62.62

> <Delta G>
0.950

> <G>
38.866

> <E>
11.063

> <-TS>
27.803

> <U+W>
-7.716

> <U>
48.052

> <W>
-55.768

> <W(PB)>
-57.871

> <W(SA)>
2.103

> <Valence>
2.122

> <Coulomb>
45.428

> <VdW>
0.502

> <VdW6>
-5.941

> <VdW12>
6.443

> <Bond>
0.160

> <Angle>
0.629

> <Pdih>
1.333

> <Idih>
0.000

> <Tether>
0.000

$$$$
VeraChem MOL file


 23 22  0  0  0  0  0  0  0  0999 V2000     
   18.7756   19.5125   25.5461 N   0  3  0  0  0  0  0  0  0  0  0  0
   18.1276   19.8020   24.8073 H   0  0  0  0  0  0  0  0  0  0  0  0
   19.3160   20.3404   25.8170 H   0  0  0  0  0  0  0  0  0  0  0  0
   18.2064   19.2485   26.3574 H   0  0  0  0  0  0  0  0  0  0  0  0
   19.6729   18.3766   25.0947 C   0  0  0  0  0  0  0  0  0  0  0  0
   19.0386   17.5217   24.8450 H   0  0  0  0  0  0  0  0  0  0  0  0
   20.3042   18.0960   25.9423 H   0  0  0  0  0  0  0  0  0  0  0  0
   20.5646   18.7307   23.8888 C   0  0  0  0  0  0  0  0  0  0  0  0
   21.1968   19.5924   24.1414 H   0  0  0  0  0  0  0  0  0  0  0  0
   21.2438   17.8887   23.6999 H   0  0  0  0  0  0  0  0  0  0  0  0
   19.7488   19.0274   22.6081 C   0  0  0  0  0  0  0  0  0  0  0  0
   19.0955   19.8943   22.7740 H   0  0  0  0  0  0  0  0  0  0  0  0
   19.0964   18.1709   22.3925 H   0  0  0  0  0  0  0  0  0  0  0  0
   20.6686   19.3074   21.3953 C   0  0  0  0  0  0  0  0  0  0  0  0
   21.3655   20.1169   21.6530 H   0  0  0  0  0  0  0  0  0  0  0  0
   21.2863   18.4231   21.1861 H   0  0  0  0  0  0  0  0  0  0  0  0
   19.8969   19.7125   20.1161 C   0  0  0  0  0  0  0  0  0  0  0  0
   20.6232   19.9931   19.3404 H   0  0  0  0  0  0  0  0  0  0  0  0
   19.2958   20.6111   20.3132 H   0  0  0  0  0  0  0  0  0  0  0  0
   18.9885   18.5900   19.5648 C   0  0  0  0  0  0  0  0  0  0  0  0
   18.1696   18.3574   20.2567 H   0  0  0  0  0  0  0  0  0  0  0  0
   19.5609   17.6703   19.3869 H   0  0  0  0  0  0  0  0  0  0  0  0
   18.5378   18.8942   18.6113 H   0  0  0  0  0  0  0  0  0  0  0  0
  1  2  1  0  0  0  0
  1  3  1  0  0  0  0
  1  4  1  0  0  0  0
  1  5  1  0  0  0  0
  5  6  1  0  0  0  0
  5  7  1  0  0  0  0
  5  8  1  0  0  0  0
  8  9  1  0  0  0  0
  8 10  1  0  0  0  0
  8 11  1  0  0  0  0
 11 12  1  0  0  0  0
 11 13  1  0  0  0  0
 11 14  1  0  0  0  0
 14 15  1  0  0  0  0
 14 16  1  0  0  0  0
 14 17  1  0  0  0  0
 17 18  1  0  0  0  0
 17 19  1  0  0  0  0
 17 20  1  0  0  0  0
 20 21  1  0  0  0  0
 20 22  1  0  0  0  0
 20 23  1  0  0  0  0
M  END
> <VM2 Rank>
14

> <Conf_Id>
889

> <Probability>
2.42

> <Sum Probability>
65.04

> <Delta G>
0.954

> <G>
38.870

> <E>
11.136

> <-TS>
27.734

> <U+W>
-7.644

> <U>
47.955

> <W>
-55.599

> <W(PB)>
-57.739

> <W(SA)>
2.140

> <Valence>
2.340

> <Coulomb>
44.939

> <VdW>
0.677

> <VdW6>
-5.763

> <VdW12>
6.440

> <Bond>
0.168

> <Angle>
0.673

> <Pdih>
1.499

> <Idih>
0.000

> <Tether>
0.000

$$$$
VeraChem MOL file


 23 22  0  0  0  0  0  0  0  0999 V2000     
   20.8034   18.7862   25.2428 N   0  3  0  0  0  0  0  0  0  0  0  0
   20.7407   19.5728   25.8968 H   0  0  0  0  0  0  0  0  0  0  0  0
   21.3966   19.0863   24.4633 H   0  0  0  0  0  0  0  0  0  0  0  0
   21.3020   18.0326   25.7280 H   0  0  0  0  0  0  0  0  0  0  0  0
   19.4352   18.3404   24.7655 C   0  0  0  0  0  0  0  0  0  0  0  0
   18.8715   18.0033   25.6396 H   0  0  0  0  0  0  0  0  0  0  0  0
   19.5706   17.4844   24.0994 H   0  0  0  0  0  0  0  0  0  0  0  0
   18.6411   19.4460   24.0403 C   0  0  0  0  0  0  0  0  0  0  0  0
   17.6472   19.0554   23.7845 H   0  0  0  0  0  0  0  0  0  0  0  0
   18.4722   20.2805   24.7338 H   0  0  0  0  0  0  0  0  0  0  0  0
   19.3267   19.9777   22.7565 C   0  0  0  0  0  0  0  0  0  0  0  0
   20.2847   20.4496   23.0124 H   0  0  0  0  0  0  0  0  0  0  0  0
   18.6997   20.7729   22.3299 H   0  0  0  0  0  0  0  0  0  0  0  0
   19.5519   18.8815   21.6873 C   0  0  0  0  0  0  0  0  0  0  0  0
   20.2157   18.1012   22.0826 H   0  0  0  0  0  0  0  0  0  0  0  0
   18.5946   18.3959   21.4525 H   0  0  0  0  0  0  0  0  0  0  0  0
   20.1658   19.4599   20.3931 C   0  0  0  0  0  0  0  0  0  0  0  0
   21.1232   19.9485   20.6224 H   0  0  0  0  0  0  0  0  0  0  0  0
   19.5045   20.2359   19.9827 H   0  0  0  0  0  0  0  0  0  0  0  0
   20.3919   18.3653   19.3285 C   0  0  0  0  0  0  0  0  0  0  0  0
   21.0779   17.5916   19.6973 H   0  0  0  0  0  0  0  0  0  0  0  0
   20.8276   18.7950   18.4172 H   0  0  0  0  0  0  0  0  0  0  0  0
   19.4460   17.8807   19.0536 H   0  0  0  0  0  0  0  0  0  0  0  0
  1  2  1  0  0  0  0
  1  3  1  0  0  0  0
  1  4  1  0  0  0  0
  1  5  1  0  0  0  0
  5  6  1  0  0  0  0
  5  7  1  0  0  0  0
  5  8  1  0  0  0  0
  8  9  1  0  0  0  0
  8 10  1  0  0  0  0
  8 11  1  0  0  0  0
 11 12  1  0  0  0  0
 11 13  1  0  0  0  0
 11 14  1  0  0  0  0
 14 15  1  0  0  0  0
 14 16  1  0  0  0  0
 14 17  1  0  0  0  0
 17 18  1  0  0  0  0
 17 19  1  0  0  0  0
 17 20  1  0  0  0  0
 20 21  1  0  0  0  0
 20 22  1  0  0  0  0
 20 23  1  0  0  0  0
M  END
> <VM2 Rank>
15

> <Conf_Id>
922

> <Probability>
2.40

> <Sum Probability>
67.45

> <Delta G>
0.958

> <G>
38.874

> <E>
11.071

> <-TS>
27.803

> <U+W>
-7.708

> <U>
48.051

> <W>
-55.760

> <W(PB)>
-57.854

> <W(SA)>
2.094

> <Valence>
2.122

> <Coulomb>
45.428

> <VdW>
0.502

> <VdW6>
-5.941

> <VdW12>
6.443

> <Bond>
0.160

> <Angle>
0.629

> <Pdih>
1.333

> <Idih>
0.000

> <Tether>
0.000

$$$$
VeraChem MOL file


 23 22  0  0  0  0  0  0  0  0999 V2000     
   20.7805   18.5790   25.4392 N   0  3  0  0  0  0  0  0  0  0  0  0
   21.4800   18.7530   24.7113 H   0  0  0  0  0  0  0  0  0  0  0  0
   20.6258   17.5664   25.4755 H   0  0  0  0  0  0  0  0  0  0  0  0
   21.2049   18.8486   26.3332 H   0  0  0  0  0  0  0  0  0  0  0  0
   19.4936   19.3368   25.1764 C   0  0  0  0  0  0  0  0  0  0  0  0
   19.7235   20.4057   25.1738 H   0  0  0  0  0  0  0  0  0  0  0  0
   18.8151   19.1365   26.0101 H   0  0  0  0  0  0  0  0  0  0  0  0
   18.8040   18.9514   23.8531 C   0  0  0  0  0  0  0  0  0  0  0  0
   18.5813   17.8760   23.8553 H   0  0  0  0  0  0  0  0  0  0  0  0
   17.8381   19.4711   23.8016 H   0  0  0  0  0  0  0  0  0  0  0  0
   19.6494   19.3152   22.6093 C   0  0  0  0  0  0  0  0  0  0  0  0
   20.6023   18.7726   22.6430 H   0  0  0  0  0  0  0  0  0  0  0  0
   19.8897   20.3872   22.6314 H   0  0  0  0  0  0  0  0  0  0  0  0
   18.9066   18.9794   21.2937 C   0  0  0  0  0  0  0  0  0  0  0  0
   18.7077   17.8998   21.2455 H   0  0  0  0  0  0  0  0  0  0  0  0
   17.9255   19.4741   21.2986 H   0  0  0  0  0  0  0  0  0  0  0  0
   19.6719   19.4209   20.0227 C   0  0  0  0  0  0  0  0  0  0  0  0
   19.8544   20.5042   20.0561 H   0  0  0  0  0  0  0  0  0  0  0  0
   19.0318   19.2443   19.1469 H   0  0  0  0  0  0  0  0  0  0  0  0
   21.0100   18.6743   19.8196 C   0  0  0  0  0  0  0  0  0  0  0  0
   21.7317   18.9175   20.6091 H   0  0  0  0  0  0  0  0  0  0  0  0
   21.4643   18.9546   18.8605 H   0  0  0  0  0  0  0  0  0  0  0  0
   20.8587   17.5870   19.8140 H   0  0  0  0  0  0  0  0  0  0  0  0
  1  2  1  0  0  0  0
  1  3  1  0  0  0  0
  1  4  1  0  0  0  0
  1  5  1  0  0  0  0
  5  6  1  0  0  0  0
  5  7  1  0  0  0  0
  5  8  1  0  0  0  0
  8  9  1  0  0  0  0
  8 10  1  0  0  0  0
  8 11  1  0  0  0  0
 11 12  1  0  0  0  0
 11 13  1  0  0  0  0
 11 14  1  0  0  0  0
 14 15  1  0  0  0  0
 14 16  1  0  0  0  0
 14 17  1  0  0  0  0
 17 18  1  0  0  0  0
 17 19  1  0  0  0  0
 17 20  1  0  0  0  0
 20 21  1  0  0  0  0
 20 22  1  0  0  0  0
 20 23  1  0  0  0  0
M  END
> <VM2 Rank>
16

> <Conf_Id>
586

> <Probability>
2.39

> <Sum Probability>
69.84

> <Delta G>
0.961

> <G>
38.877

> <E>
11.149

> <-TS>
27.728

> <U+W>
-7.631

> <U>
48.083

> <W>
-55.714

> <W(PB)>
-57.844

> <W(SA)>
2.130

> <Valence>
2.338

> <Coulomb>
45.069

> <VdW>
0.676

> <VdW6>
-5.773

> <VdW12>
6.449

> <Bond>
0.170

> <Angle>
0.671

> <Pdih>
1.498

> <Idih>
0.000

> <Tether>
0.000

$$$$
VeraChem MOL file


 23 22  0  0  0  0  0  0  0  0999 V2000     
   19.2388   18.1908   25.6190 N   0  3  0  0  0  0  0  0  0  0  0  0
   18.3156   18.2107   25.1751 H   0  0  0  0  0  0  0  0  0  0  0  0
   19.0844   18.2133   26.6327 H   0  0  0  0  0  0  0  0  0  0  0  0
   19.6605   17.2823   25.4011 H   0  0  0  0  0  0  0  0  0  0  0  0
   20.1101   19.3425   25.1568 C   0  0  0  0  0  0  0  0  0  0  0  0
   21.0581   19.2795   25.6980 H   0  0  0  0  0  0  0  0  0  0  0  0
   19.6171   20.2761   25.4410 H   0  0  0  0  0  0  0  0  0  0  0  0
   20.3858   19.3421   23.6408 C   0  0  0  0  0  0  0  0  0  0  0  0
   21.0938   20.1508   23.4162 H   0  0  0  0  0  0  0  0  0  0  0  0
   20.8830   18.4029   23.3671 H   0  0  0  0  0  0  0  0  0  0  0  0
   19.0982   19.5389   22.8020 C   0  0  0  0  0  0  0  0  0  0  0  0
   18.5662   20.4278   23.1686 H   0  0  0  0  0  0  0  0  0  0  0  0
   18.4188   18.6888   22.9492 H   0  0  0  0  0  0  0  0  0  0  0  0
   19.3698   19.7194   21.2881 C   0  0  0  0  0  0  0  0  0  0  0  0
   18.4210   19.9641   20.7908 H   0  0  0  0  0  0  0  0  0  0  0  0
   20.0305   20.5834   21.1325 H   0  0  0  0  0  0  0  0  0  0  0  0
   19.9814   18.4673   20.6160 C   0  0  0  0  0  0  0  0  0  0  0  0
   19.3464   17.5923   20.8134 H   0  0  0  0  0  0  0  0  0  0  0  0
   20.9676   18.2490   21.0468 H   0  0  0  0  0  0  0  0  0  0  0  0
   20.1319   18.6561   19.0914 C   0  0  0  0  0  0  0  0  0  0  0  0
   19.1582   18.8364   18.6174 H   0  0  0  0  0  0  0  0  0  0  0  0
   20.5694   17.7606   18.6312 H   0  0  0  0  0  0  0  0  0  0  0  0
   20.7867   19.5069   18.8620 H   0  0  0  0  0  0  0  0  0  0  0  0
  1  2  1  0  0  0  0
  1  3  1  0  0  0  0
  1  4  1  0  0  0  0
  1  5  1  0  0  0  0
  5  6  1  0  0  0  0
  5  7  1  0  0  0  0
  5  8  1  0  0  0  0
  8  9  1  0  0  0  0
  8 10  1  0  0  0  0
  8 11  1  0  0  0  0
 11 12  1  0  0  0  0
 11 13  1  0  0  0  0
 11 14  1  0  0  0  0
 14 15  1  0  0  0  0
 14 16  1  0  0  0  0
 14 17  1  0  0  0  0
 17 18  1  0  0  0  0
 17 19  1  0  0  0  0
 17 20  1  0  0  0  0
 20 21  1  0  0  0  0
 20 22  1  0  0  0  0
 20 23  1  0  0  0  0
M  END
> <VM2 Rank>
17

> <Conf_Id>
661

> <Probability>
2.24

> <Sum Probability>
72.08

> <Delta G>
0.999

> <G>
38.915

> <E>
11.183

> <-TS>
27.732

> <U+W>
-7.596

> <U>
48.113

> <W>
-55.710

> <W(PB)>
-57.828

> <W(SA)>
2.118

> <Valence>
2.372

> <Coulomb>
45.091

> <VdW>
0.651

> <VdW6>
-5.797

> <VdW12>
6.448

> <Bond>
0.172

> <Angle>
0.675

> <Pdih>
1.524

> <Idih>
0.000

> <Tether>
0.000

$$$$
VeraChem MOL file


 23 22  0  0  0  0  0  0  0  0999 V2000     
   19.4673   18.5297   25.9105 N   0  3  0  0  0  0  0  0  0  0  0  0
   18.6448   18.0568   25.5241 H   0  0  0  0  0  0  0  0  0  0  0  0
   19.2267   18.8160   26.8655 H   0  0  0  0  0  0  0  0  0  0  0  0
   20.2116   17.8291   25.9874 H   0  0  0  0  0  0  0  0  0  0  0  0
   19.8904   19.7109   25.0588 C   0  0  0  0  0  0  0  0  0  0  0  0
   20.7413   20.1869   25.5537 H   0  0  0  0  0  0  0  0  0  0  0  0
   19.0649   20.4274   25.0372 H   0  0  0  0  0  0  0  0  0  0  0  0
   20.2858   19.3311   23.6184 C   0  0  0  0  0  0  0  0  0  0  0  0
   20.6852   20.2287   23.1303 H   0  0  0  0  0  0  0  0  0  0  0  0
   21.1022   18.5972   23.6443 H   0  0  0  0  0  0  0  0  0  0  0  0
   19.0948   18.7732   22.7991 C   0  0  0  0  0  0  0  0  0  0  0  0
   18.2922   19.5225   22.7554 H   0  0  0  0  0  0  0  0  0  0  0  0
   18.6740   17.9006   23.3159 H   0  0  0  0  0  0  0  0  0  0  0  0
   19.4799   18.3419   21.3623 C   0  0  0  0  0  0  0  0  0  0  0  0
   20.2783   17.5882   21.4053 H   0  0  0  0  0  0  0  0  0  0  0  0
   18.6129   17.8457   20.9046 H   0  0  0  0  0  0  0  0  0  0  0  0
   19.9198   19.5172   20.4571 C   0  0  0  0  0  0  0  0  0  0  0  0
   20.8351   19.9784   20.8508 H   0  0  0  0  0  0  0  0  0  0  0  0
   19.1445   20.2961   20.4571 H   0  0  0  0  0  0  0  0  0  0  0  0
   20.1780   19.0531   19.0078 C   0  0  0  0  0  0  0  0  0  0  0  0
   19.2713   18.6224   18.5631 H   0  0  0  0  0  0  0  0  0  0  0  0
   20.9702   18.2940   18.9719 H   0  0  0  0  0  0  0  0  0  0  0  0
   20.4918   19.8975   18.3805 H   0  0  0  0  0  0  0  0  0  0  0  0
  1  2  1  0  0  0  0
  1  3  1  0  0  0  0
  1  4  1  0  0  0  0
  1  5  1  0  0  0  0
  5  6  1  0  0  0  0
  5  7  1  0  0  0  0
  5  8  1  0  0  0  0
  8  9  1  0  0  0  0
  8 10  1  0  0  0  0
  8 11  1  0  0  0  0
 11 12  1  0  0  0  0
 11 13  1  0  0  0  0
 11 14  1  0  0  0  0
 14 15  1  0  0  0  0
 14 16  1  0  0  0  0
 14 17  1  0  0  0  0
 17 18  1  0  0  0  0
 17 19  1  0  0  0  0
 17 20  1  0  0  0  0
 20 21  1  0  0  0  0
 20 22  1  0  0  0  0
 20 23  1  0  0  0  0
M  END
> <VM2 Rank>
18

> <Conf_Id>
840

> <Probability>
1.98

> <Sum Probability>
74.06

> <Delta G>
1.074

> <G>
38.990

> <E>
11.290

> <-TS>
27.700

> <U+W>
-7.489

> <U>
48.041

> <W>
-55.530

> <W(PB)>
-57.678

> <W(SA)>
2.148

> <Valence>
2.406

> <Coulomb>
44.931

> <VdW>
0.704

> <VdW6>
-5.755

> <VdW12>
6.460

> <Bond>
0.178

> <Angle>
0.724

> <Pdih>
1.504

> <Idih>
0.000

> <Tether>
0.000

$$$$
VeraChem MOL file


 23 22  0  0  0  0  0  0  0  0999 V2000     
   20.0669   18.7791   25.9378 N   0  3  0  0  0  0  0  0  0  0  0  0
   19.9591   19.1207   26.8988 H   0  0  0  0  0  0  0  0  0  0  0  0
   21.0091   19.0401   25.6317 H   0  0  0  0  0  0  0  0  0  0  0  0
   20.0344   17.7555   25.9793 H   0  0  0  0  0  0  0  0  0  0  0  0
   18.9997   19.3404   25.0182 C   0  0  0  0  0  0  0  0  0  0  0  0
   19.0737   20.4311   25.0375 H   0  0  0  0  0  0  0  0  0  0  0  0
   18.0270   19.0581   25.4301 H   0  0  0  0  0  0  0  0  0  0  0  0
   19.1026   18.8390   23.5645 C   0  0  0  0  0  0  0  0  0  0  0  0
   19.0469   17.7424   23.5507 H   0  0  0  0  0  0  0  0  0  0  0  0
   18.2247   19.2054   23.0182 H   0  0  0  0  0  0  0  0  0  0  0  0
   20.3973   19.3148   22.8584 C   0  0  0  0  0  0  0  0  0  0  0  0
   21.2702   18.9803   23.4343 H   0  0  0  0  0  0  0  0  0  0  0  0
   20.4337   20.4130   22.8529 H   0  0  0  0  0  0  0  0  0  0  0  0
   20.5436   18.7842   21.4108 C   0  0  0  0  0  0  0  0  0  0  0  0
   21.5391   19.0625   21.0379 H   0  0  0  0  0  0  0  0  0  0  0  0
   20.5133   17.6858   21.4160 H   0  0  0  0  0  0  0  0  0  0  0  0
   19.4731   19.3313   20.4368 C   0  0  0  0  0  0  0  0  0  0  0  0
   19.4658   20.4297   20.4720 H   0  0  0  0  0  0  0  0  0  0  0  0
   18.4735   18.9959   20.7431 H   0  0  0  0  0  0  0  0  0  0  0  0
   19.7329   18.8681   18.9874 C   0  0  0  0  0  0  0  0  0  0  0  0
   20.7087   19.2206   18.6287 H   0  0  0  0  0  0  0  0  0  0  0  0
   18.9634   19.2620   18.3108 H   0  0  0  0  0  0  0  0  0  0  0  0
   19.7170   17.7728   18.9145 H   0  0  0  0  0  0  0  0  0  0  0  0
  1  2  1  0  0  0  0
  1  3  1  0  0  0  0
  1  4  1  0  0  0  0
  1  5  1  0  0  0  0
  5  6  1  0  0  0  0
  5  7  1  0  0  0  0
  5  8  1  0  0  0  0
  8  9  1  0  0  0  0
  8 10  1  0  0  0  0
  8 11  1  0  0  0  0
 11 12  1  0  0  0  0
 11 13  1  0  0  0  0
 11 14  1  0  0  0  0
 14 15  1  0  0  0  0
 14 16  1  0  0  0  0
 14 17  1  0  0  0  0
 17 18  1  0  0  0  0
 17 19  1  0  0  0  0
 17 20  1  0  0  0  0
 20 21  1  0  0  0  0
 20 22  1  0  0  0  0
 20 23  1  0  0  0  0
M  END
> <VM2 Rank>
19

> <Conf_Id>
638

> <Probability>
1.95

> <Sum Probability>
76.02

> <Delta G>
1.081

> <G>
38.997

> <E>
11.297

> <-TS>
27.700

> <U+W>
-7.482

> <U>
48.041

> <W>
-55.523

> <W(PB)>
-57.654

> <W(SA)>
2.131

> <Valence>
2.405

> <Coulomb>
44.931

> <VdW>
0.705

> <VdW6>
-5.755

> <VdW12>
6.460

> <Bond>
0.178

> <Angle>
0.724

> <Pdih>
1.504

> <Idih>
0.000

> <Tether>
0.000

$$$$
VeraChem MOL file


 23 22  0  0  0  0  0  0  0  0999 V2000     
   19.9814   18.5648   26.0725 N   0  3  0  0  0  0  0  0  0  0  0  0
   20.5032   17.7867   26.4898 H   0  0  0  0  0  0  0  0  0  0  0  0
   19.0525   18.5669   26.5062 H   0  0  0  0  0  0  0  0  0  0  0  0
   20.4515   19.4283   26.3626 H   0  0  0  0  0  0  0  0  0  0  0  0
   19.9008   18.4440   24.5643 C   0  0  0  0  0  0  0  0  0  0  0  0
   19.4171   17.4926   24.3270 H   0  0  0  0  0  0  0  0  0  0  0  0
   20.9218   18.4175   24.1749 H   0  0  0  0  0  0  0  0  0  0  0  0
   19.1221   19.5991   23.9070 C   0  0  0  0  0  0  0  0  0  0  0  0
   18.1123   19.6417   24.3364 H   0  0  0  0  0  0  0  0  0  0  0  0
   19.6064   20.5549   24.1476 H   0  0  0  0  0  0  0  0  0  0  0  0
   19.0093   19.4449   22.3720 C   0  0  0  0  0  0  0  0  0  0  0  0
   18.3749   20.2526   21.9818 H   0  0  0  0  0  0  0  0  0  0  0  0
   18.4922   18.5036   22.1430 H   0  0  0  0  0  0  0  0  0  0  0  0
   20.3836   19.4849   21.6568 C   0  0  0  0  0  0  0  0  0  0  0  0
   20.9291   20.3832   21.9774 H   0  0  0  0  0  0  0  0  0  0  0  0
   20.9945   18.6253   21.9635 H   0  0  0  0  0  0  0  0  0  0  0  0
   20.2716   19.5033   20.1132 C   0  0  0  0  0  0  0  0  0  0  0  0
   21.2765   19.6347   19.6880 H   0  0  0  0  0  0  0  0  0  0  0  0
   19.6861   20.3765   19.7930 H   0  0  0  0  0  0  0  0  0  0  0  0
   19.6473   18.2160   19.5282 C   0  0  0  0  0  0  0  0  0  0  0  0
   19.6719   18.2414   18.4311 H   0  0  0  0  0  0  0  0  0  0  0  0
   18.5992   18.1023   19.8317 H   0  0  0  0  0  0  0  0  0  0  0  0
   20.1992   17.3254   19.8556 H   0  0  0  0  0  0  0  0  0  0  0  0
  1  2  1  0  0  0  0
  1  3  1  0  0  0  0
  1  4  1  0  0  0  0
  1  5  1  0  0  0  0
  5  6  1  0  0  0  0
  5  7  1  0  0  0  0
  5  8  1  0  0  0  0
  8  9  1  0  0  0  0
  8 10  1  0  0  0  0
  8 11  1  0  0  0  0
 11 12  1  0  0  0  0
 11 13  1  0  0  0  0
 11 14  1  0  0  0  0
 14 15  1  0  0  0  0
 14 16  1  0  0  0  0
 14 17  1  0  0  0  0
 17 18  1  0  0  0  0
 17 19  1  0  0  0  0
 17 20  1  0  0  0  0
 20 21  1  0  0  0  0
 20 22  1  0  0  0  0
 20 23  1  0  0  0  0
M  END
> <VM2 Rank>
20

> <Conf_Id>
885

> <Probability>
1.87

> <Sum Probability>
77.88

> <Delta G>
1.108

> <G>
39.024

> <E>
11.287

> <-TS>
27.737

> <U+W>
-7.492

> <U>
47.960

> <W>
-55.452

> <W(PB)>
-57.573

> <W(SA)>
2.121

> <Valence>
2.523

> <Coulomb>
44.824

> <VdW>
0.613

> <VdW6>
-5.844

> <VdW12>
6.457

> <Bond>
0.171

> <Angle>
0.728

> <Pdih>
1.624

> <Idih>
0.000

> <Tether>
0.000

$$$$
VeraChem MOL file


 23 22  0  0  0  0  0  0  0  0999 V2000     
   19.6684   18.4346   26.0581 N   0  3  0  0  0  0  0  0  0  0  0  0
   18.7047   18.7020   26.2829 H   0  0  0  0  0  0  0  0  0  0  0  0
   20.2856   19.0794   26.5624 H   0  0  0  0  0  0  0  0  0  0  0  0
   19.8203   17.5026   26.4586 H   0  0  0  0  0  0  0  0  0  0  0  0
   19.9275   18.4551   24.5654 C   0  0  0  0  0  0  0  0  0  0  0  0
   19.2595   17.7263   24.0991 H   0  0  0  0  0  0  0  0  0  0  0  0
   20.9589   18.1337   24.3972 H   0  0  0  0  0  0  0  0  0  0  0  0
   19.7077   19.8427   23.9337 C   0  0  0  0  0  0  0  0  0  0  0  0
   18.6725   20.1666   24.1051 H   0  0  0  0  0  0  0  0  0  0  0  0
   20.3534   20.5736   24.4385 H   0  0  0  0  0  0  0  0  0  0  0  0
   20.0151   19.8632   22.4178 C   0  0  0  0  0  0  0  0  0  0  0  0
   21.0622   19.5724   22.2600 H   0  0  0  0  0  0  0  0  0  0  0  0
   19.9190   20.8948   22.0522 H   0  0  0  0  0  0  0  0  0  0  0  0
   19.0772   18.9418   21.5974 C   0  0  0  0  0  0  0  0  0  0  0  0
   19.2329   17.8929   21.8834 H   0  0  0  0  0  0  0  0  0  0  0  0
   18.0335   19.1793   21.8455 H   0  0  0  0  0  0  0  0  0  0  0  0
   19.2626   19.0837   20.0672 C   0  0  0  0  0  0  0  0  0  0  0  0
   19.0804   20.1246   19.7653 H   0  0  0  0  0  0  0  0  0  0  0  0
   18.4970   18.4788   19.5614 H   0  0  0  0  0  0  0  0  0  0  0  0
   20.6575   18.6360   19.5743 C   0  0  0  0  0  0  0  0  0  0  0  0
   20.7073   18.6718   18.4783 H   0  0  0  0  0  0  0  0  0  0  0  0
   20.8751   17.6064   19.8867 H   0  0  0  0  0  0  0  0  0  0  0  0
   21.4502   19.2880   19.9616 H   0  0  0  0  0  0  0  0  0  0  0  0
  1  2  1  0  0  0  0
  1  3  1  0  0  0  0
  1  4  1  0  0  0  0
  1  5  1  0  0  0  0
  5  6  1  0  0  0  0
  5  7  1  0  0  0  0
  5  8  1  0  0  0  0
  8  9  1  0  0  0  0
  8 10  1  0  0  0  0
  8 11  1  0  0  0  0
 11 12  1  0  0  0  0
 11 13  1  0  0  0  0
 11 14  1  0  0  0  0
 14 15  1  0  0  0  0
 14 16  1  0  0  0  0
 14 17  1  0  0  0  0
 17 18  1  0  0  0  0
 17 19  1  0  0  0  0
 17 20  1  0  0  0  0
 20 21  1  0  0  0  0
 20 22  1  0  0  0  0
 20 23  1  0  0  0  0
M  END
> <VM2 Rank>
21

> <Conf_Id>
366

> <Probability>
1.85

> <Sum Probability>
79.74

> <Delta G>
1.112

> <G>
39.028

> <E>
11.291

> <-TS>
27.737

> <U+W>
-7.488

> <U>
47.960

> <W>
-55.447

> <W(PB)>
-57.579

> <W(SA)>
2.131

> <Valence>
2.523

> <Coulomb>
44.824

> <VdW>
0.613

> <VdW6>
-5.845

> <VdW12>
6.458

> <Bond>
0.171

> <Angle>
0.728

> <Pdih>
1.623

> <Idih>
0.000

> <Tether>
0.000

$$$$
VeraChem MOL file


 23 22  0  0  0  0  0  0  0  0999 V2000     
   19.9354   19.0089   26.1816 N   0  3  0  0  0  0  0  0  0  0  0  0
   20.7037   18.3358   26.2681 H   0  0  0  0  0  0  0  0  0  0  0  0
   19.0999   18.5651   26.5763 H   0  0  0  0  0  0  0  0  0  0  0  0
   20.1654   19.8033   26.7883 H   0  0  0  0  0  0  0  0  0  0  0  0
   19.7211   19.4410   24.7452 C   0  0  0  0  0  0  0  0  0  0  0  0
   20.6363   19.9306   24.4029 H   0  0  0  0  0  0  0  0  0  0  0  0
   18.9115   20.1757   24.7310 H   0  0  0  0  0  0  0  0  0  0  0  0
   19.3734   18.2688   23.8081 C   0  0  0  0  0  0  0  0  0  0  0  0
   20.1868   17.5311   23.8211 H   0  0  0  0  0  0  0  0  0  0  0  0
   18.4800   17.7579   24.1912 H   0  0  0  0  0  0  0  0  0  0  0  0
   19.1057   18.7222   22.3533 C   0  0  0  0  0  0  0  0  0  0  0  0
   18.2850   19.4527   22.3424 H   0  0  0  0  0  0  0  0  0  0  0  0
   18.7563   17.8526   21.7817 H   0  0  0  0  0  0  0  0  0  0  0  0
   20.3555   19.3284   21.6655 C   0  0  0  0  0  0  0  0  0  0  0  0
   20.7189   20.1830   22.2511 H   0  0  0  0  0  0  0  0  0  0  0  0
   21.1692   18.5901   21.6583 H   0  0  0  0  0  0  0  0  0  0  0  0
   20.0880   19.8150   20.2204 C   0  0  0  0  0  0  0  0  0  0  0  0
   20.9846   20.3329   19.8520 H   0  0  0  0  0  0  0  0  0  0  0  0
   19.2816   20.5616   20.2227 H   0  0  0  0  0  0  0  0  0  0  0  0
   19.7369   18.6728   19.2398 C   0  0  0  0  0  0  0  0  0  0  0  0
   20.5129   17.8963   19.2436 H   0  0  0  0  0  0  0  0  0  0  0  0
   19.6536   19.0585   18.2155 H   0  0  0  0  0  0  0  0  0  0  0  0
   18.7785   18.2031   19.4930 H   0  0  0  0  0  0  0  0  0  0  0  0
  1  2  1  0  0  0  0
  1  3  1  0  0  0  0
  1  4  1  0  0  0  0
  1  5  1  0  0  0  0
  5  6  1  0  0  0  0
  5  7  1  0  0  0  0
  5  8  1  0  0  0  0
  8  9  1  0  0  0  0
  8 10  1  0  0  0  0
  8 11  1  0  0  0  0
 11 12  1  0  0  0  0
 11 13  1  0  0  0  0
 11 14  1  0  0  0  0
 14 15  1  0  0  0  0
 14 16  1  0  0  0  0
 14 17  1  0  0  0  0
 17 18  1  0  0  0  0
 17 19  1  0  0  0  0
 17 20  1  0  0  0  0
 20 21  1  0  0  0  0
 20 22  1  0  0  0  0
 20 23  1  0  0  0  0
M  END
> <VM2 Rank>
22

> <Conf_Id>
279

> <Probability>
1.72

> <Sum Probability>
81.46

> <Delta G>
1.157

> <G>
39.074

> <E>
11.369

> <-TS>
27.705

> <U+W>
-7.411

> <U>
48.047

> <W>
-55.458

> <W(PB)>
-57.596

> <W(SA)>
2.138

> <Valence>
2.583

> <Coulomb>
44.791

> <VdW>
0.673

> <VdW6>
-5.788

> <VdW12>
6.462

> <Bond>
0.177

> <Angle>
0.787

> <Pdih>
1.619

> <Idih>
0.000

> <Tether>
0.000

$$$$
VeraChem MOL file


 23 22  0  0  0  0  0  0  0  0999 V2000     
   19.9326   17.9510   25.5929 N   0  3  0  0  0  0  0  0  0  0  0  0
   20.7969   17.6032   26.0219 H   0  0  0  0  0  0  0  0  0  0  0  0
   19.3930   17.1296   25.3015 H   0  0  0  0  0  0  0  0  0  0  0  0
   19.3983   18.4153   26.3344 H   0  0  0  0  0  0  0  0  0  0  0  0
   20.2158   18.8829   24.4323 C   0  0  0  0  0  0  0  0  0  0  0  0
   20.8106   18.3333   23.6980 H   0  0  0  0  0  0  0  0  0  0  0  0
   20.8155   19.7168   24.8069 H   0  0  0  0  0  0  0  0  0  0  0  0
   18.9368   19.4230   23.7654 C   0  0  0  0  0  0  0  0  0  0  0  0
   18.3289   18.5862   23.3985 H   0  0  0  0  0  0  0  0  0  0  0  0
   18.3277   19.9366   24.5210 H   0  0  0  0  0  0  0  0  0  0  0  0
   19.2346   20.4104   22.6094 C   0  0  0  0  0  0  0  0  0  0  0  0
   19.7241   21.3033   23.0222 H   0  0  0  0  0  0  0  0  0  0  0  0
   18.2833   20.7579   22.1833 H   0  0  0  0  0  0  0  0  0  0  0  0
   20.1214   19.8383   21.4730 C   0  0  0  0  0  0  0  0  0  0  0  0
   20.2846   20.6309   20.7298 H   0  0  0  0  0  0  0  0  0  0  0  0
   21.1152   19.5823   21.8641 H   0  0  0  0  0  0  0  0  0  0  0  0
   19.5059   18.6071   20.7671 C   0  0  0  0  0  0  0  0  0  0  0  0
   18.4943   18.8497   20.4128 H   0  0  0  0  0  0  0  0  0  0  0  0
   19.4043   17.7750   21.4765 H   0  0  0  0  0  0  0  0  0  0  0  0
   20.3690   18.1445   19.5739 C   0  0  0  0  0  0  0  0  0  0  0  0
   20.4607   18.9384   18.8212 H   0  0  0  0  0  0  0  0  0  0  0  0
   19.9197   17.2693   19.0868 H   0  0  0  0  0  0  0  0  0  0  0  0
   21.3789   17.8660   19.9021 H   0  0  0  0  0  0  0  0  0  0  0  0
  1  2  1  0  0  0  0
  1  3  1  0  0  0  0
  1  4  1  0  0  0  0
  1  5  1  0  0  0  0
  5  6  1  0  0  0  0
  5  7  1  0  0  0  0
  5  8  1  0  0  0  0
  8  9  1  0  0  0  0
  8 10  1  0  0  0  0
  8 11  1  0  0  0  0
 11 12  1  0  0  0  0
 11 13  1  0  0  0  0
 11 14  1  0  0  0  0
 14 15  1  0  0  0  0
 14 16  1  0  0  0  0
 14 17  1  0  0  0  0
 17 18  1  0  0  0  0
 17 19  1  0  0  0  0
 17 20  1  0  0  0  0
 20 21  1  0  0  0  0
 20 22  1  0  0  0  0
 20 23  1  0  0  0  0
M  END
> <VM2 Rank>
23

> <Conf_Id>
115

> <Probability>
1.72

> <Sum Probability>
83.17

> <Delta G>
1.158

> <G>
39.075

> <E>
11.222

> <-TS>
27.853

> <U+W>
-7.557

> <U>
48.231

> <W>
-55.788

> <W(PB)>
-57.904

> <W(SA)>
2.116

> <Valence>
2.496

> <Coulomb>
45.257

> <VdW>
0.478

> <VdW6>
-6.161

> <VdW12>
6.639

> <Bond>
0.180

> <Angle>
0.891

> <Pdih>
1.425

> <Idih>
0.000

> <Tether>
0.000

$$$$
VeraChem MOL file


 23 22  0  0  0  0  0  0  0  0999 V2000     
   20.1745   18.0516   25.6039 N   0  3  0  0  0  0  0  0  0  0  0  0
   20.1635   18.7335   26.3692 H   0  0  0  0  0  0  0  0  0  0  0  0
   21.1574   17.8634   25.3818 H   0  0  0  0  0  0  0  0  0  0  0  0
   19.7807   17.1806   25.9756 H   0  0  0  0  0  0  0  0  0  0  0  0
   19.4060   18.5461   24.3954 C   0  0  0  0  0  0  0  0  0  0  0  0
   18.3656   18.6978   24.6953 H   0  0  0  0  0  0  0  0  0  0  0  0
   19.4344   17.7610   23.6353 H   0  0  0  0  0  0  0  0  0  0  0  0
   19.9732   19.8541   23.8126 C   0  0  0  0  0  0  0  0  0  0  0  0
   19.9786   20.6233   24.5962 H   0  0  0  0  0  0  0  0  0  0  0  0
   21.0208   19.7059   23.5211 H   0  0  0  0  0  0  0  0  0  0  0  0
   19.1548   20.3772   22.6057 C   0  0  0  0  0  0  0  0  0  0  0  0
   19.6097   21.3096   22.2437 H   0  0  0  0  0  0  0  0  0  0  0  0
   18.1470   20.6474   22.9503 H   0  0  0  0  0  0  0  0  0  0  0  0
   19.0255   19.3824   21.4231 C   0  0  0  0  0  0  0  0  0  0  0  0
   18.4786   18.4856   21.7440 H   0  0  0  0  0  0  0  0  0  0  0  0
   18.4074   19.8500   20.6442 H   0  0  0  0  0  0  0  0  0  0  0  0
   20.3839   18.9723   20.8071 C   0  0  0  0  0  0  0  0  0  0  0  0
   20.9892   18.4342   21.5488 H   0  0  0  0  0  0  0  0  0  0  0  0
   20.9498   19.8710   20.5247 H   0  0  0  0  0  0  0  0  0  0  0  0
   20.1980   18.0734   19.5662 C   0  0  0  0  0  0  0  0  0  0  0  0
   19.6300   18.5928   18.7834 H   0  0  0  0  0  0  0  0  0  0  0  0
   19.6607   17.1514   19.8238 H   0  0  0  0  0  0  0  0  0  0  0  0
   21.1708   17.7897   19.1439 H   0  0  0  0  0  0  0  0  0  0  0  0
  1  2  1  0  0  0  0
  1  3  1  0  0  0  0
  1  4  1  0  0  0  0
  1  5  1  0  0  0  0
  5  6  1  0  0  0  0
  5  7  1  0  0  0  0
  5  8  1  0  0  0  0
  8  9  1  0  0  0  0
  8 10  1  0  0  0  0
  8 11  1  0  0  0  0
 11 12  1  0  0  0  0
 11 13  1  0  0  0  0
 11 14  1  0  0  0  0
 14 15  1  0  0  0  0
 14 16  1  0  0  0  0
 14 17  1  0  0  0  0
 17 18  1  0  0  0  0
 17 19  1  0  0  0  0
 17 20  1  0  0  0  0
 20 21  1  0  0  0  0
 20 22  1  0  0  0  0
 20 23  1  0  0  0  0
M  END
> <VM2 Rank>
24

> <Conf_Id>
543

> <Probability>
1.66

> <Sum Probability>
84.83

> <Delta G>
1.179

> <G>
39.096

> <E>
11.243

> <-TS>
27.853

> <U+W>
-7.536

> <U>
48.231

> <W>
-55.766

> <W(PB)>
-57.888

> <W(SA)>
2.121

> <Valence>
2.496

> <Coulomb>
45.257

> <VdW>
0.478

> <VdW6>
-6.161

> <VdW12>
6.639

> <Bond>
0.180

> <Angle>
0.891

> <Pdih>
1.425

> <Idih>
0.000

> <Tether>
0.000

$$$$
VeraChem MOL file


 23 22  0  0  0  0  0  0  0  0999 V2000     
   19.3779   18.7769   26.1562 N   0  3  0  0  0  0  0  0  0  0  0  0
   18.6071   19.1551   26.7173 H   0  0  0  0  0  0  0  0  0  0  0  0
   20.2481   19.0424   26.6286 H   0  0  0  0  0  0  0  0  0  0  0  0
   19.3083   17.7553   26.2044 H   0  0  0  0  0  0  0  0  0  0  0  0
   19.3339   19.2800   24.7276 C   0  0  0  0  0  0  0  0  0  0  0  0
   19.3833   20.3719   24.7526 H   0  0  0  0  0  0  0  0  0  0  0  0
   18.3714   18.9886   24.2997 H   0  0  0  0  0  0  0  0  0  0  0  0
   20.4805   18.7293   23.8585 C   0  0  0  0  0  0  0  0  0  0  0  0
   21.4396   18.9890   24.3261 H   0  0  0  0  0  0  0  0  0  0  0  0
   20.4307   17.6326   23.8322 H   0  0  0  0  0  0  0  0  0  0  0  0
   20.4603   19.2856   22.4150 C   0  0  0  0  0  0  0  0  0  0  0  0
   21.3655   18.9380   21.9006 H   0  0  0  0  0  0  0  0  0  0  0  0
   20.5201   20.3824   22.4443 H   0  0  0  0  0  0  0  0  0  0  0  0
   19.2071   18.8508   21.6131 C   0  0  0  0  0  0  0  0  0  0  0  0
   19.1590   17.7541   21.5668 H   0  0  0  0  0  0  0  0  0  0  0  0
   18.3015   19.1776   22.1410 H   0  0  0  0  0  0  0  0  0  0  0  0
   19.1625   19.4300   20.1782 C   0  0  0  0  0  0  0  0  0  0  0  0
   19.1998   20.5276   20.2189 H   0  0  0  0  0  0  0  0  0  0  0  0
   18.1951   19.1724   19.7249 H   0  0  0  0  0  0  0  0  0  0  0  0
   20.2937   18.9044   19.2653 C   0  0  0  0  0  0  0  0  0  0  0  0
   20.2985   17.8071   19.2341 H   0  0  0  0  0  0  0  0  0  0  0  0
   21.2794   19.2435   19.6070 H   0  0  0  0  0  0  0  0  0  0  0  0
   20.1586   19.2683   18.2385 H   0  0  0  0  0  0  0  0  0  0  0  0
  1  2  1  0  0  0  0
  1  3  1  0  0  0  0
  1  4  1  0  0  0  0
  1  5  1  0  0  0  0
  5  6  1  0  0  0  0
  5  7  1  0  0  0  0
  5  8  1  0  0  0  0
  8  9  1  0  0  0  0
  8 10  1  0  0  0  0
  8 11  1  0  0  0  0
 11 12  1  0  0  0  0
 11 13  1  0  0  0  0
 11 14  1  0  0  0  0
 14 15  1  0  0  0  0
 14 16  1  0  0  0  0
 14 17  1  0  0  0  0
 17 18  1  0  0  0  0
 17 19  1  0  0  0  0
 17 20  1  0  0  0  0
 20 21  1  0  0  0  0
 20 22  1  0  0  0  0
 20 23  1  0  0  0  0
M  END
> <VM2 Rank>
25

> <Conf_Id>
350

> <Probability>
1.63

> <Sum Probability>
86.46

> <Delta G>
1.188

> <G>
39.104

> <E>
11.399

> <-TS>
27.705

> <U+W>
-7.380

> <U>
48.047

> <W>
-55.427

> <W(PB)>
-57.543

> <W(SA)>
2.116

> <Valence>
2.583

> <Coulomb>
44.791

> <VdW>
0.673

> <VdW6>
-5.789

> <VdW12>
6.462

> <Bond>
0.177

> <Angle>
0.787

> <Pdih>
1.619

> <Idih>
0.000

> <Tether>
0.000

$$$$
VeraChem MOL file


 23 22  0  0  0  0  0  0  0  0999 V2000     
   20.0522   18.2281   25.8962 N   0  3  0  0  0  0  0  0  0  0  0  0
   20.6438   17.4431   25.6055 H   0  0  0  0  0  0  0  0  0  0  0  0
   19.1172   17.8498   26.0790 H   0  0  0  0  0  0  0  0  0  0  0  0
   20.4194   18.5615   26.7940 H   0  0  0  0  0  0  0  0  0  0  0  0
   20.0229   19.3298   24.8563 C   0  0  0  0  0  0  0  0  0  0  0  0
   21.0425   19.7051   24.7332 H   0  0  0  0  0  0  0  0  0  0  0  0
   19.4019   20.1423   25.2430 H   0  0  0  0  0  0  0  0  0  0  0  0
   19.4757   18.8620   23.4961 C   0  0  0  0  0  0  0  0  0  0  0  0
   20.0957   18.0354   23.1266 H   0  0  0  0  0  0  0  0  0  0  0  0
   18.4578   18.4713   23.6267 H   0  0  0  0  0  0  0  0  0  0  0  0
   19.4623   20.0166   22.4670 C   0  0  0  0  0  0  0  0  0  0  0  0
   20.4852   20.3819   22.3052 H   0  0  0  0  0  0  0  0  0  0  0  0
   18.9031   20.8634   22.8886 H   0  0  0  0  0  0  0  0  0  0  0  0
   18.8163   19.6320   21.1106 C   0  0  0  0  0  0  0  0  0  0  0  0
   17.7607   19.3767   21.2774 H   0  0  0  0  0  0  0  0  0  0  0  0
   18.8117   20.5168   20.4593 H   0  0  0  0  0  0  0  0  0  0  0  0
   19.5002   18.4612   20.3593 C   0  0  0  0  0  0  0  0  0  0  0  0
   18.9559   18.2826   19.4214 H   0  0  0  0  0  0  0  0  0  0  0  0
   19.4098   17.5330   20.9393 H   0  0  0  0  0  0  0  0  0  0  0  0
   20.9863   18.7273   20.0286 C   0  0  0  0  0  0  0  0  0  0  0  0
   21.3962   17.9125   19.4178 H   0  0  0  0  0  0  0  0  0  0  0  0
   21.5949   18.7957   20.9388 H   0  0  0  0  0  0  0  0  0  0  0  0
   21.1038   19.6617   19.4647 H   0  0  0  0  0  0  0  0  0  0  0  0
  1  2  1  0  0  0  0
  1  3  1  0  0  0  0
  1  4  1  0  0  0  0
  1  5  1  0  0  0  0
  5  6  1  0  0  0  0
  5  7  1  0  0  0  0
  5  8  1  0  0  0  0
  8  9  1  0  0  0  0
  8 10  1  0  0  0  0
  8 11  1  0  0  0  0
 11 12  1  0  0  0  0
 11 13  1  0  0  0  0
 11 14  1  0  0  0  0
 14 15  1  0  0  0  0
 14 16  1  0  0  0  0
 14 17  1  0  0  0  0
 17 18  1  0  0  0  0
 17 19  1  0  0  0  0
 17 20  1  0  0  0  0
 20 21  1  0  0  0  0
 20 22  1  0  0  0  0
 20 23  1  0  0  0  0
M  END
> <VM2 Rank>
26

> <Conf_Id>
676

> <Probability>
1.49

> <Sum Probability>
87.96

> <Delta G>
1.241

> <G>
39.158

> <E>
11.212

> <-TS>
27.946

> <U+W>
-7.567

> <U>
48.054

> <W>
-55.621

> <W(PB)>
-57.724

> <W(SA)>
2.103

> <Valence>
2.692

> <Coulomb>
44.814

> <VdW>
0.547

> <VdW6>
-6.176

> <VdW12>
6.723

> <Bond>
0.192

> <Angle>
1.036

> <Pdih>
1.465

> <Idih>
0.000

> <Tether>
0.000

$$$$
VeraChem MOL file


 23 22  0  0  0  0  0  0  0  0999 V2000     
   19.8709   18.1527   25.8879 N   0  3  0  0  0  0  0  0  0  0  0  0
   20.0339   17.1894   25.5777 H   0  0  0  0  0  0  0  0  0  0  0  0
   19.3074   18.0990   26.7433 H   0  0  0  0  0  0  0  0  0  0  0  0
   20.7809   18.5419   26.1549 H   0  0  0  0  0  0  0  0  0  0  0  0
   19.1921   18.9842   24.8184 C   0  0  0  0  0  0  0  0  0  0  0  0
   19.0228   19.9846   25.2258 H   0  0  0  0  0  0  0  0  0  0  0  0
   18.2203   18.5311   24.6046 H   0  0  0  0  0  0  0  0  0  0  0  0
   20.0129   19.0855   23.5206 C   0  0  0  0  0  0  0  0  0  0  0  0
   20.9939   19.5263   23.7422 H   0  0  0  0  0  0  0  0  0  0  0  0
   20.1917   18.0753   23.1310 H   0  0  0  0  0  0  0  0  0  0  0  0
   19.2848   19.9427   22.4589 C   0  0  0  0  0  0  0  0  0  0  0  0
   19.0450   20.9225   22.8950 H   0  0  0  0  0  0  0  0  0  0  0  0
   18.3206   19.4814   22.2066 H   0  0  0  0  0  0  0  0  0  0  0  0
   20.1157   20.1725   21.1699 C   0  0  0  0  0  0  0  0  0  0  0  0
   19.5430   20.8210   20.4927 H   0  0  0  0  0  0  0  0  0  0  0  0
   21.0245   20.7343   21.4261 H   0  0  0  0  0  0  0  0  0  0  0  0
   20.5228   18.8865   20.4059 C   0  0  0  0  0  0  0  0  0  0  0  0
   21.1983   18.2770   21.0208 H   0  0  0  0  0  0  0  0  0  0  0  0
   21.1041   19.1762   19.5193 H   0  0  0  0  0  0  0  0  0  0  0  0
   19.3169   18.0329   19.9524 C   0  0  0  0  0  0  0  0  0  0  0  0
   19.6533   17.1877   19.3382 H   0  0  0  0  0  0  0  0  0  0  0  0
   18.6165   18.6272   19.3514 H   0  0  0  0  0  0  0  0  0  0  0  0
   18.7707   17.6208   20.8101 H   0  0  0  0  0  0  0  0  0  0  0  0
  1  2  1  0  0  0  0
  1  3  1  0  0  0  0
  1  4  1  0  0  0  0
  1  5  1  0  0  0  0
  5  6  1  0  0  0  0
  5  7  1  0  0  0  0
  5  8  1  0  0  0  0
  8  9  1  0  0  0  0
  8 10  1  0  0  0  0
  8 11  1  0  0  0  0
 11 12  1  0  0  0  0
 11 13  1  0  0  0  0
 11 14  1  0  0  0  0
 14 15  1  0  0  0  0
 14 16  1  0  0  0  0
 14 17  1  0  0  0  0
 17 18  1  0  0  0  0
 17 19  1  0  0  0  0
 17 20  1  0  0  0  0
 20 21  1  0  0  0  0
 20 22  1  0  0  0  0
 20 23  1  0  0  0  0
M  END
> <VM2 Rank>
27

> <Conf_Id>
518

> <Probability>
1.29

> <Sum Probability>
89.25

> <Delta G>
1.327

> <G>
39.244

> <E>
11.298

> <-TS>
27.946

> <U+W>
-7.481

> <U>
48.054

> <W>
-55.535

> <W(PB)>
-57.640

> <W(SA)>
2.105

> <Valence>
2.692

> <Coulomb>
44.814

> <VdW>
0.547

> <VdW6>
-6.176

> <VdW12>
6.723

> <Bond>
0.192

> <Angle>
1.036

> <Pdih>
1.465

> <Idih>
0.000

> <Tether>
0.000

$$$$
VeraChem MOL file


 23 22  0  0  0  0  0  0  0  0999 V2000     
   19.8771   18.6894   25.7958 N   0  3  0  0  0  0  0  0  0  0  0  0
   18.9396   18.3223   25.9880 H   0  0  0  0  0  0  0  0  0  0  0  0
   20.2732   18.9831   26.6952 H   0  0  0  0  0  0  0  0  0  0  0  0
   20.4460   17.9066   25.4598 H   0  0  0  0  0  0  0  0  0  0  0  0
   19.8420   19.8301   24.7973 C   0  0  0  0  0  0  0  0  0  0  0  0
   20.8648   20.1893   24.6554 H   0  0  0  0  0  0  0  0  0  0  0  0
   19.2554   20.6394   25.2406 H   0  0  0  0  0  0  0  0  0  0  0  0
   19.2330   19.4467   23.4345 C   0  0  0  0  0  0  0  0  0  0  0  0
   18.2128   19.0685   23.5818 H   0  0  0  0  0  0  0  0  0  0  0  0
   19.1464   20.3607   22.8338 H   0  0  0  0  0  0  0  0  0  0  0  0
   20.0836   18.3994   22.6729 C   0  0  0  0  0  0  0  0  0  0  0  0
   20.2026   17.5034   23.2963 H   0  0  0  0  0  0  0  0  0  0  0  0
   21.0966   18.7911   22.5111 H   0  0  0  0  0  0  0  0  0  0  0  0
   19.4632   17.9620   21.3204 C   0  0  0  0  0  0  0  0  0  0  0  0
   20.1037   17.1892   20.8736 H   0  0  0  0  0  0  0  0  0  0  0  0
   18.4963   17.4764   21.5115 H   0  0  0  0  0  0  0  0  0  0  0  0
   19.2555   19.0975   20.2857 C   0  0  0  0  0  0  0  0  0  0  0  0
   18.5176   19.8209   20.6576 H   0  0  0  0  0  0  0  0  0  0  0  0
   18.8173   18.6645   19.3756 H   0  0  0  0  0  0  0  0  0  0  0  0
   20.5617   19.8319   19.9074 C   0  0  0  0  0  0  0  0  0  0  0  0
   21.3224   19.1254   19.5508 H   0  0  0  0  0  0  0  0  0  0  0  0
   20.9759   20.3816   20.7618 H   0  0  0  0  0  0  0  0  0  0  0  0
   20.3760   20.5585   19.1059 H   0  0  0  0  0  0  0  0  0  0  0  0
  1  2  1  0  0  0  0
  1  3  1  0  0  0  0
  1  4  1  0  0  0  0
  1  5  1  0  0  0  0
  5  6  1  0  0  0  0
  5  7  1  0  0  0  0
  5  8  1  0  0  0  0
  8  9  1  0  0  0  0
  8 10  1  0  0  0  0
  8 11  1  0  0  0  0
 11 12  1  0  0  0  0
 11 13  1  0  0  0  0
 11 14  1  0  0  0  0
 14 15  1  0  0  0  0
 14 16  1  0  0  0  0
 14 17  1  0  0  0  0
 17 18  1  0  0  0  0
 17 19  1  0  0  0  0
 17 20  1  0  0  0  0
 20 21  1  0  0  0  0
 20 22  1  0  0  0  0
 20 23  1  0  0  0  0
M  END
> <VM2 Rank>
28

> <Conf_Id>
509

> <Probability>
0.88

> <Sum Probability>
90.13

> <Delta G>
1.560

> <G>
39.476

> <E>
11.437

> <-TS>
28.039

> <U+W>
-7.342

> <U>
48.503

> <W>
-55.845

> <W(PB)>
-57.925

> <W(SA)>
2.080

> <Valence>
2.823

> <Coulomb>
44.990

> <VdW>
0.689

> <VdW6>
-6.667

> <VdW12>
7.357

> <Bond>
0.219

> <Angle>
1.118

> <Pdih>
1.487

> <Idih>
0.000

> <Tether>
0.000

$$$$
VeraChem MOL file


 23 22  0  0  0  0  0  0  0  0999 V2000     
   20.0738   18.1585   25.2941 N   0  3  0  0  0  0  0  0  0  0  0  0
   20.8891   17.7162   25.7315 H   0  0  0  0  0  0  0  0  0  0  0  0
   19.5896   17.4333   24.7564 H   0  0  0  0  0  0  0  0  0  0  0  0
   19.4457   18.4439   26.0521 H   0  0  0  0  0  0  0  0  0  0  0  0
   20.4702   19.3320   24.4200 C   0  0  0  0  0  0  0  0  0  0  0  0
   21.1628   18.9682   23.6565 H   0  0  0  0  0  0  0  0  0  0  0  0
   21.0040   20.0501   25.0484 H   0  0  0  0  0  0  0  0  0  0  0  0
   19.2733   20.0321   23.7454 C   0  0  0  0  0  0  0  0  0  0  0  0
   18.6023   20.4234   24.5215 H   0  0  0  0  0  0  0  0  0  0  0  0
   19.6392   20.9094   23.1969 H   0  0  0  0  0  0  0  0  0  0  0  0
   18.4657   19.1168   22.7876 C   0  0  0  0  0  0  0  0  0  0  0  0
   17.6632   19.7084   22.3257 H   0  0  0  0  0  0  0  0  0  0  0  0
   17.9598   18.3372   23.3728 H   0  0  0  0  0  0  0  0  0  0  0  0
   19.3023   18.4404   21.6708 C   0  0  0  0  0  0  0  0  0  0  0  0
   20.0507   17.7700   22.1140 H   0  0  0  0  0  0  0  0  0  0  0  0
   18.6349   17.7991   21.0787 H   0  0  0  0  0  0  0  0  0  0  0  0
   19.9998   19.4469   20.7256 C   0  0  0  0  0  0  0  0  0  0  0  0
   20.7253   20.0520   21.2854 H   0  0  0  0  0  0  0  0  0  0  0  0
   19.2569   20.1424   20.3109 H   0  0  0  0  0  0  0  0  0  0  0  0
   20.7309   18.7303   19.5705 C   0  0  0  0  0  0  0  0  0  0  0  0
   21.2218   19.4582   18.9116 H   0  0  0  0  0  0  0  0  0  0  0  0
   20.0296   18.1448   18.9618 H   0  0  0  0  0  0  0  0  0  0  0  0
   21.5020   18.0493   19.9539 H   0  0  0  0  0  0  0  0  0  0  0  0
  1  2  1  0  0  0  0
  1  3  1  0  0  0  0
  1  4  1  0  0  0  0
  1  5  1  0  0  0  0
  5  6  1  0  0  0  0
  5  7  1  0  0  0  0
  5  8  1  0  0  0  0
  8  9  1  0  0  0  0
  8 10  1  0  0  0  0
  8 11  1  0  0  0  0
 11 12  1  0  0  0  0
 11 13  1  0  0  0  0
 11 14  1  0  0  0  0
 14 15  1  0  0  0  0
 14 16  1  0  0  0  0
 14 17  1  0  0  0  0
 17 18  1  0  0  0  0
 17 19  1  0  0  0  0
 17 20  1  0  0  0  0
 20 21  1  0  0  0  0
 20 22  1  0  0  0  0
 20 23  1  0  0  0  0
M  END
> <VM2 Rank>
29

> <Conf_Id>
271

> <Probability>
0.83

> <Sum Probability>
90.96

> <Delta G>
1.591

> <G>
39.508

> <E>
11.447

> <-TS>
28.060

> <U+W>
-7.332

> <U>
48.590

> <W>
-55.922

> <W(PB)>
-58.012

> <W(SA)>
2.090

> <Valence>
2.601

> <Coulomb>
45.520

> <VdW>
0.469

> <VdW6>
-6.867

> <VdW12>
7.336

> <Bond>
0.205

> <Angle>
0.962

> <Pdih>
1.434

> <Idih>
0.000

> <Tether>
0.000

$$$$
VeraChem MOL file


 23 22  0  0  0  0  0  0  0  0999 V2000     
   20.2304   19.8407   25.3502 N   0  3  0  0  0  0  0  0  0  0  0  0
   20.9561   19.2909   25.8209 H   0  0  0  0  0  0  0  0  0  0  0  0
   19.9054   20.5445   26.0216 H   0  0  0  0  0  0  0  0  0  0  0  0
   20.6827   20.3447   24.5813 H   0  0  0  0  0  0  0  0  0  0  0  0
   19.0945   18.9673   24.8550 C   0  0  0  0  0  0  0  0  0  0  0  0
   18.3450   19.6151   24.3935 H   0  0  0  0  0  0  0  0  0  0  0  0
   18.6382   18.4897   25.7263 H   0  0  0  0  0  0  0  0  0  0  0  0
   19.5381   17.8830   23.8517 C   0  0  0  0  0  0  0  0  0  0  0  0
   20.2514   17.2095   24.3450 H   0  0  0  0  0  0  0  0  0  0  0  0
   18.6672   17.2671   23.5907 H   0  0  0  0  0  0  0  0  0  0  0  0
   20.1758   18.4410   22.5541 C   0  0  0  0  0  0  0  0  0  0  0  0
   20.4892   17.5896   21.9363 H   0  0  0  0  0  0  0  0  0  0  0  0
   21.0916   18.9963   22.7963 H   0  0  0  0  0  0  0  0  0  0  0  0
   19.2138   19.3445   21.7413 C   0  0  0  0  0  0  0  0  0  0  0  0
   18.3100   18.7788   21.4761 H   0  0  0  0  0  0  0  0  0  0  0  0
   18.8806   20.1833   22.3665 H   0  0  0  0  0  0  0  0  0  0  0  0
   19.8531   19.9270   20.4574 C   0  0  0  0  0  0  0  0  0  0  0  0
   20.7519   20.5034   20.7177 H   0  0  0  0  0  0  0  0  0  0  0  0
   19.1499   20.6419   20.0077 H   0  0  0  0  0  0  0  0  0  0  0  0
   20.2103   18.8534   19.4043 C   0  0  0  0  0  0  0  0  0  0  0  0
   19.3349   18.2413   19.1515 H   0  0  0  0  0  0  0  0  0  0  0  0
   21.0054   18.1868   19.7604 H   0  0  0  0  0  0  0  0  0  0  0  0
   20.5670   19.3262   18.4801 H   0  0  0  0  0  0  0  0  0  0  0  0
  1  2  1  0  0  0  0
  1  3  1  0  0  0  0
  1  4  1  0  0  0  0
  1  5  1  0  0  0  0
  5  6  1  0  0  0  0
  5  7  1  0  0  0  0
  5  8  1  0  0  0  0
  8  9  1  0  0  0  0
  8 10  1  0  0  0  0
  8 11  1  0  0  0  0
 11 12  1  0  0  0  0
 11 13  1  0  0  0  0
 11 14  1  0  0  0  0
 14 15  1  0  0  0  0
 14 16  1  0  0  0  0
 14 17  1  0  0  0  0
 17 18  1  0  0  0  0
 17 19  1  0  0  0  0
 17 20  1  0  0  0  0
 20 21  1  0  0  0  0
 20 22  1  0  0  0  0
 20 23  1  0  0  0  0
M  END
> <VM2 Rank>
30

> <Conf_Id>
71

> <Probability>
0.82

> <Sum Probability>
91.78

> <Delta G>
1.600

> <G>
39.516

> <E>
11.626

> <-TS>
27.890

> <U+W>
-7.154

> <U>
48.727

> <W>
-55.880

> <W(PB)>
-57.960

> <W(SA)>
2.080

> <Valence>
2.671

> <Coulomb>
45.371

> <VdW>
0.684

> <VdW6>
-6.511

> <VdW12>
7.195

> <Bond>
0.203

> <Angle>
0.915

> <Pdih>
1.554

> <Idih>
0.000

> <Tether>
0.000

$$$$
VeraChem MOL file


 23 22  0  0  0  0  0  0  0  0999 V2000     
   20.3541   17.8789   24.9471 N   0  3  0  0  0  0  0  0  0  0  0  0
   19.5907   17.3574   25.3897 H   0  0  0  0  0  0  0  0  0  0  0  0
   21.1941   17.7177   25.5130 H   0  0  0  0  0  0  0  0  0  0  0  0
   20.5218   17.4525   24.0307 H   0  0  0  0  0  0  0  0  0  0  0  0
   20.0312   19.3552   24.8259 C   0  0  0  0  0  0  0  0  0  0  0  0
   20.8936   19.8550   24.3772 H   0  0  0  0  0  0  0  0  0  0  0  0
   19.8981   19.7510   25.8364 H   0  0  0  0  0  0  0  0  0  0  0  0
   18.7672   19.6466   23.9916 C   0  0  0  0  0  0  0  0  0  0  0  0
   17.9001   19.1794   24.4770 H   0  0  0  0  0  0  0  0  0  0  0  0
   18.5786   20.7283   24.0044 H   0  0  0  0  0  0  0  0  0  0  0  0
   18.8560   19.1607   22.5230 C   0  0  0  0  0  0  0  0  0  0  0  0
   17.9095   19.3980   22.0181 H   0  0  0  0  0  0  0  0  0  0  0  0
   18.9469   18.0673   22.5042 H   0  0  0  0  0  0  0  0  0  0  0  0
   20.0258   19.8080   21.7395 C   0  0  0  0  0  0  0  0  0  0  0  0
   19.9647   20.9003   21.8421 H   0  0  0  0  0  0  0  0  0  0  0  0
   20.9871   19.5092   22.1782 H   0  0  0  0  0  0  0  0  0  0  0  0
   20.0245   19.4551   20.2326 C   0  0  0  0  0  0  0  0  0  0  0  0
   20.8144   20.0341   19.7340 H   0  0  0  0  0  0  0  0  0  0  0  0
   19.0765   19.7731   19.7767 H   0  0  0  0  0  0  0  0  0  0  0  0
   20.2572   17.9525   19.9544 C   0  0  0  0  0  0  0  0  0  0  0  0
   21.1866   17.6033   20.4226 H   0  0  0  0  0  0  0  0  0  0  0  0
   20.3366   17.7699   18.8749 H   0  0  0  0  0  0  0  0  0  0  0  0
   19.4296   17.3394   20.3319 H   0  0  0  0  0  0  0  0  0  0  0  0
  1  2  1  0  0  0  0
  1  3  1  0  0  0  0
  1  4  1  0  0  0  0
  1  5  1  0  0  0  0
  5  6  1  0  0  0  0
  5  7  1  0  0  0  0
  5  8  1  0  0  0  0
  8  9  1  0  0  0  0
  8 10  1  0  0  0  0
  8 11  1  0  0  0  0
 11 12  1  0  0  0  0
 11 13  1  0  0  0  0
 11 14  1  0  0  0  0
 14 15  1  0  0  0  0
 14 16  1  0  0  0  0
 14 17  1  0  0  0  0
 17 18  1  0  0  0  0
 17 19  1  0  0  0  0
 17 20  1  0  0  0  0
 20 21  1  0  0  0  0
 20 22  1  0  0  0  0
 20 23  1  0  0  0  0
M  END
> <VM2 Rank>
31

> <Conf_Id>
334

> <Probability>
0.82

> <Sum Probability>
92.59

> <Delta G>
1.602

> <G>
39.519

> <E>
11.590

> <-TS>
27.929

> <U+W>
-7.189

> <U>
48.775

> <W>
-55.965

> <W(PB)>
-58.037

> <W(SA)>
2.073

> <Valence>
2.602

> <Coulomb>
45.581

> <VdW>
0.592

> <VdW6>
-6.616

> <VdW12>
7.208

> <Bond>
0.196

> <Angle>
0.832

> <Pdih>
1.574

> <Idih>
0.000

> <Tether>
0.000

$$$$
VeraChem MOL file


 23 22  0  0  0  0  0  0  0  0999 V2000     
   18.6465   19.1825   25.2779 N   0  3  0  0  0  0  0  0  0  0  0  0
   18.3248   19.8877   25.9495 H   0  0  0  0  0  0  0  0  0  0  0  0
   18.4893   18.2657   25.7084 H   0  0  0  0  0  0  0  0  0  0  0  0
   18.0320   19.2432   24.4604 H   0  0  0  0  0  0  0  0  0  0  0  0
   20.1008   19.3855   24.9009 C   0  0  0  0  0  0  0  0  0  0  0  0
   20.6917   19.3431   25.8199 H   0  0  0  0  0  0  0  0  0  0  0  0
   20.2048   20.3881   24.4782 H   0  0  0  0  0  0  0  0  0  0  0  0
   20.6343   18.3386   23.9016 C   0  0  0  0  0  0  0  0  0  0  0  0
   21.7020   18.5285   23.7290 H   0  0  0  0  0  0  0  0  0  0  0  0
   20.5715   17.3425   24.3596 H   0  0  0  0  0  0  0  0  0  0  0  0
   19.8922   18.3231   22.5412 C   0  0  0  0  0  0  0  0  0  0  0  0
   18.8373   18.0592   22.6936 H   0  0  0  0  0  0  0  0  0  0  0  0
   20.3225   17.5203   21.9287 H   0  0  0  0  0  0  0  0  0  0  0  0
   19.9915   19.6678   21.7768 C   0  0  0  0  0  0  0  0  0  0  0  0
   19.5834   20.4754   22.3986 H   0  0  0  0  0  0  0  0  0  0  0  0
   21.0471   19.9166   21.6009 H   0  0  0  0  0  0  0  0  0  0  0  0
   19.2299   19.6679   20.4291 C   0  0  0  0  0  0  0  0  0  0  0  0
   19.2527   20.6847   20.0125 H   0  0  0  0  0  0  0  0  0  0  0  0
   18.1707   19.4301   20.6001 H   0  0  0  0  0  0  0  0  0  0  0  0
   19.8207   18.6915   19.3865 C   0  0  0  0  0  0  0  0  0  0  0  0
   19.7066   17.6469   19.7011 H   0  0  0  0  0  0  0  0  0  0  0  0
   20.8882   18.8874   19.2222 H   0  0  0  0  0  0  0  0  0  0  0  0
   19.3073   18.8026   18.4226 H   0  0  0  0  0  0  0  0  0  0  0  0
  1  2  1  0  0  0  0
  1  3  1  0  0  0  0
  1  4  1  0  0  0  0
  1  5  1  0  0  0  0
  5  6  1  0  0  0  0
  5  7  1  0  0  0  0
  5  8  1  0  0  0  0
  8  9  1  0  0  0  0
  8 10  1  0  0  0  0
  8 11  1  0  0  0  0
 11 12  1  0  0  0  0
 11 13  1  0  0  0  0
 11 14  1  0  0  0  0
 14 15  1  0  0  0  0
 14 16  1  0  0  0  0
 14 17  1  0  0  0  0
 17 18  1  0  0  0  0
 17 19  1  0  0  0  0
 17 20  1  0  0  0  0
 20 21  1  0  0  0  0
 20 22  1  0  0  0  0
 20 23  1  0  0  0  0
M  END
> <VM2 Rank>
32

> <Conf_Id>
105

> <Probability>
0.79

> <Sum Probability>
93.38

> <Delta G>
1.623

> <G>
39.539

> <E>
11.649

> <-TS>
27.890

> <U+W>
-7.130

> <U>
48.727

> <W>
-55.857

> <W(PB)>
-57.937

> <W(SA)>
2.080

> <Valence>
2.671

> <Coulomb>
45.371

> <VdW>
0.684

> <VdW6>
-6.511

> <VdW12>
7.196

> <Bond>
0.203

> <Angle>
0.915

> <Pdih>
1.554

> <Idih>
0.000

> <Tether>
0.000

$$$$
VeraChem MOL file


 23 22  0  0  0  0  0  0  0  0999 V2000     
   19.9517   18.1078   25.2885 N   0  3  0  0  0  0  0  0  0  0  0  0
   20.1317   18.7293   26.0834 H   0  0  0  0  0  0  0  0  0  0  0  0
   20.8467   17.9562   24.8138 H   0  0  0  0  0  0  0  0  0  0  0  0
   19.6586   17.2043   25.6754 H   0  0  0  0  0  0  0  0  0  0  0  0
   18.9104   18.6832   24.3489 C   0  0  0  0  0  0  0  0  0  0  0  0
   17.9786   18.7915   24.9105 H   0  0  0  0  0  0  0  0  0  0  0  0
   18.7410   17.9608   23.5461 H   0  0  0  0  0  0  0  0  0  0  0  0
   19.3073   20.0462   23.7469 C   0  0  0  0  0  0  0  0  0  0  0  0
   18.4718   20.4238   23.1437 H   0  0  0  0  0  0  0  0  0  0  0  0
   19.4411   20.7723   24.5597 H   0  0  0  0  0  0  0  0  0  0  0  0
   20.5964   20.0032   22.8847 C   0  0  0  0  0  0  0  0  0  0  0  0
   21.4581   19.7925   23.5323 H   0  0  0  0  0  0  0  0  0  0  0  0
   20.7768   21.0035   22.4676 H   0  0  0  0  0  0  0  0  0  0  0  0
   20.5747   18.9697   21.7288 C   0  0  0  0  0  0  0  0  0  0  0  0
   21.5432   19.0089   21.2112 H   0  0  0  0  0  0  0  0  0  0  0  0
   20.4897   17.9526   22.1340 H   0  0  0  0  0  0  0  0  0  0  0  0
   19.4458   19.2164   20.7004 C   0  0  0  0  0  0  0  0  0  0  0  0
   19.5069   20.2465   20.3224 H   0  0  0  0  0  0  0  0  0  0  0  0
   18.4647   19.1115   21.1824 H   0  0  0  0  0  0  0  0  0  0  0  0
   19.5296   18.2305   19.5157 C   0  0  0  0  0  0  0  0  0  0  0  0
   18.7207   18.4178   18.7977 H   0  0  0  0  0  0  0  0  0  0  0  0
   19.4409   17.1918   19.8599 H   0  0  0  0  0  0  0  0  0  0  0  0
   20.4836   18.3338   18.9824 H   0  0  0  0  0  0  0  0  0  0  0  0
  1  2  1  0  0  0  0
  1  3  1  0  0  0  0
  1  4  1  0  0  0  0
  1  5  1  0  0  0  0
  5  6  1  0  0  0  0
  5  7  1  0  0  0  0
  5  8  1  0  0  0  0
  8  9  1  0  0  0  0
  8 10  1  0  0  0  0
  8 11  1  0  0  0  0
 11 12  1  0  0  0  0
 11 13  1  0  0  0  0
 11 14  1  0  0  0  0
 14 15  1  0  0  0  0
 14 16  1  0  0  0  0
 14 17  1  0  0  0  0
 17 18  1  0  0  0  0
 17 19  1  0  0  0  0
 17 20  1  0  0  0  0
 20 21  1  0  0  0  0
 20 22  1  0  0  0  0
 20 23  1  0  0  0  0
M  END
> <VM2 Rank>
33

> <Conf_Id>
331

> <Probability>
0.77

> <Sum Probability>
94.15

> <Delta G>
1.638

> <G>
39.555

> <E>
11.494

> <-TS>
28.060

> <U+W>
-7.285

> <U>
48.590

> <W>
-55.875

> <W(PB)>
-57.962

> <W(SA)>
2.087

> <Valence>
2.601

> <Coulomb>
45.520

> <VdW>
0.469

> <VdW6>
-6.867

> <VdW12>
7.336

> <Bond>
0.205

> <Angle>
0.962

> <Pdih>
1.434

> <Idih>
0.000

> <Tether>
0.000

$$$$
VeraChem MOL file


 23 22  0  0  0  0  0  0  0  0999 V2000     
   19.6752   18.6052   25.7866 N   0  3  0  0  0  0  0  0  0  0  0  0
   19.1195   18.5023   26.6425 H   0  0  0  0  0  0  0  0  0  0  0  0
   20.5779   19.0045   26.0629 H   0  0  0  0  0  0  0  0  0  0  0  0
   19.8571   17.6612   25.4328 H   0  0  0  0  0  0  0  0  0  0  0  0
   18.9691   19.4664   24.7575 C   0  0  0  0  0  0  0  0  0  0  0  0
   18.7725   20.4381   25.2187 H   0  0  0  0  0  0  0  0  0  0  0  0
   18.0082   18.9995   24.5250 H   0  0  0  0  0  0  0  0  0  0  0  0
   19.7736   19.6719   23.4592 C   0  0  0  0  0  0  0  0  0  0  0  0
   19.2332   20.3970   22.8379 H   0  0  0  0  0  0  0  0  0  0  0  0
   20.7456   20.1236   23.6975 H   0  0  0  0  0  0  0  0  0  0  0  0
   19.9785   18.3556   22.6681 C   0  0  0  0  0  0  0  0  0  0  0  0
   19.0030   17.9190   22.4158 H   0  0  0  0  0  0  0  0  0  0  0  0
   20.4817   17.6198   23.3089 H   0  0  0  0  0  0  0  0  0  0  0  0
   20.8282   18.5309   21.3826 C   0  0  0  0  0  0  0  0  0  0  0  0
   21.8356   18.8679   21.6637 H   0  0  0  0  0  0  0  0  0  0  0  0
   20.9616   17.5467   20.9127 H   0  0  0  0  0  0  0  0  0  0  0  0
   20.2492   19.5116   20.3309 C   0  0  0  0  0  0  0  0  0  0  0  0
   20.9339   19.5464   19.4720 H   0  0  0  0  0  0  0  0  0  0  0  0
   20.2250   20.5323   20.7353 H   0  0  0  0  0  0  0  0  0  0  0  0
   18.8422   19.1153   19.8290 C   0  0  0  0  0  0  0  0  0  0  0  0
   18.5194   19.7848   19.0212 H   0  0  0  0  0  0  0  0  0  0  0  0
   18.0960   19.1816   20.6305 H   0  0  0  0  0  0  0  0  0  0  0  0
   18.8373   18.0898   19.4376 H   0  0  0  0  0  0  0  0  0  0  0  0
  1  2  1  0  0  0  0
  1  3  1  0  0  0  0
  1  4  1  0  0  0  0
  1  5  1  0  0  0  0
  5  6  1  0  0  0  0
  5  7  1  0  0  0  0
  5  8  1  0  0  0  0
  8  9  1  0  0  0  0
  8 10  1  0  0  0  0
  8 11  1  0  0  0  0
 11 12  1  0  0  0  0
 11 13  1  0  0  0  0
 11 14  1  0  0  0  0
 14 15  1  0  0  0  0
 14 16  1  0  0  0  0
 14 17  1  0  0  0  0
 17 18  1  0  0  0  0
 17 19  1  0  0  0  0
 17 20  1  0  0  0  0
 20 21  1  0  0  0  0
 20 22  1  0  0  0  0
 20 23  1  0  0  0  0
M  END
> <VM2 Rank>
34

> <Conf_Id>
484

> <Probability>
0.74

> <Sum Probability>
94.88

> <Delta G>
1.663

> <G>
39.580

> <E>
11.541

> <-TS>
28.039

> <U+W>
-7.238

> <U>
48.503

> <W>
-55.741

> <W(PB)>
-57.819

> <W(SA)>
2.078

> <Valence>
2.824

> <Coulomb>
44.990

> <VdW>
0.689

> <VdW6>
-6.667

> <VdW12>
7.356

> <Bond>
0.219

> <Angle>
1.118

> <Pdih>
1.487

> <Idih>
0.000

> <Tether>
0.000

$$$$
VeraChem MOL file


 23 22  0  0  0  0  0  0  0  0999 V2000     
   19.9801   17.7232   24.9299 N   0  3  0  0  0  0  0  0  0  0  0  0
   20.2355   17.3333   24.0176 H   0  0  0  0  0  0  0  0  0  0  0  0
   19.4608   16.9964   25.4338 H   0  0  0  0  0  0  0  0  0  0  0  0
   20.8507   17.8817   25.4470 H   0  0  0  0  0  0  0  0  0  0  0  0
   19.1707   18.9970   24.7866 C   0  0  0  0  0  0  0  0  0  0  0  0
   18.9054   19.3378   25.7911 H   0  0  0  0  0  0  0  0  0  0  0  0
   18.2464   18.7534   24.2565 H   0  0  0  0  0  0  0  0  0  0  0  0
   19.9161   20.1247   24.0440 C   0  0  0  0  0  0  0  0  0  0  0  0
   19.2815   21.0208   24.0365 H   0  0  0  0  0  0  0  0  0  0  0  0
   20.8178   20.3935   24.6101 H   0  0  0  0  0  0  0  0  0  0  0  0
   20.3118   19.7666   22.5894 C   0  0  0  0  0  0  0  0  0  0  0  0
   21.0237   18.9316   22.5988 H   0  0  0  0  0  0  0  0  0  0  0  0
   20.8472   20.6205   22.1521 H   0  0  0  0  0  0  0  0  0  0  0  0
   19.0932   19.4201   21.6970 C   0  0  0  0  0  0  0  0  0  0  0  0
   18.5960   18.5145   22.0692 H   0  0  0  0  0  0  0  0  0  0  0  0
   18.3547   20.2305   21.7686 H   0  0  0  0  0  0  0  0  0  0  0  0
   19.4610   19.2206   20.2069 C   0  0  0  0  0  0  0  0  0  0  0  0
   19.9367   20.1308   19.8158 H   0  0  0  0  0  0  0  0  0  0  0  0
   18.5353   19.0858   19.6300 H   0  0  0  0  0  0  0  0  0  0  0  0
   20.3831   18.0048   19.9602 C   0  0  0  0  0  0  0  0  0  0  0  0
   21.3688   18.1461   20.4205 H   0  0  0  0  0  0  0  0  0  0  0  0
   20.5405   17.8545   18.8843 H   0  0  0  0  0  0  0  0  0  0  0  0
   19.9416   17.0853   20.3660 H   0  0  0  0  0  0  0  0  0  0  0  0
  1  2  1  0  0  0  0
  1  3  1  0  0  0  0
  1  4  1  0  0  0  0
  1  5  1  0  0  0  0
  5  6  1  0  0  0  0
  5  7  1  0  0  0  0
  5  8  1  0  0  0  0
  8  9  1  0  0  0  0
  8 10  1  0  0  0  0
  8 11  1  0  0  0  0
 11 12  1  0  0  0  0
 11 13  1  0  0  0  0
 11 14  1  0  0  0  0
 14 15  1  0  0  0  0
 14 16  1  0  0  0  0
 14 17  1  0  0  0  0
 17 18  1  0  0  0  0
 17 19  1  0  0  0  0
 17 20  1  0  0  0  0
 20 21  1  0  0  0  0
 20 22  1  0  0  0  0
 20 23  1  0  0  0  0
M  END
> <VM2 Rank>
35

> <Conf_Id>
342

> <Probability>
0.71

> <Sum Probability>
95.60

> <Delta G>
1.681

> <G>
39.598

> <E>
11.669

> <-TS>
27.929

> <U+W>
-7.110

> <U>
48.775

> <W>
-55.886

> <W(PB)>
-57.959

> <W(SA)>
2.073

> <Valence>
2.602

> <Coulomb>
45.581

> <VdW>
0.592

> <VdW6>
-6.616

> <VdW12>
7.209

> <Bond>
0.196

> <Angle>
0.832

> <Pdih>
1.574

> <Idih>
0.000

> <Tether>
0.000

$$$$
VeraChem MOL file


 23 22  0  0  0  0  0  0  0  0999 V2000     
   20.2114   17.9530   25.2450 N   0  3  0  0  0  0  0  0  0  0  0  0
   20.3618   17.8125   26.2498 H   0  0  0  0  0  0  0  0  0  0  0  0
   21.1328   18.0997   24.8221 H   0  0  0  0  0  0  0  0  0  0  0  0
   19.8427   17.0723   24.8721 H   0  0  0  0  0  0  0  0  0  0  0  0
   19.2765   19.1155   24.9736 C   0  0  0  0  0  0  0  0  0  0  0  0
   19.7141   20.0137   25.4175 H   0  0  0  0  0  0  0  0  0  0  0  0
   18.3323   18.9083   25.4846 H   0  0  0  0  0  0  0  0  0  0  0  0
   19.0051   19.3565   23.4761 C   0  0  0  0  0  0  0  0  0  0  0  0
   18.5665   18.4499   23.0402 H   0  0  0  0  0  0  0  0  0  0  0  0
   18.2504   20.1485   23.3821 H   0  0  0  0  0  0  0  0  0  0  0  0
   20.2802   19.7678   22.6986 C   0  0  0  0  0  0  0  0  0  0  0  0
   21.0152   18.9532   22.7193 H   0  0  0  0  0  0  0  0  0  0  0  0
   20.7531   20.6160   23.2128 H   0  0  0  0  0  0  0  0  0  0  0  0
   20.0014   20.1811   21.2303 C   0  0  0  0  0  0  0  0  0  0  0  0
   19.3567   21.0707   21.2256 H   0  0  0  0  0  0  0  0  0  0  0  0
   20.9471   20.4935   20.7664 H   0  0  0  0  0  0  0  0  0  0  0  0
   19.3483   19.0865   20.3482 C   0  0  0  0  0  0  0  0  0  0  0  0
   19.1980   19.4947   19.3390 H   0  0  0  0  0  0  0  0  0  0  0  0
   18.3459   18.8429   20.7252 H   0  0  0  0  0  0  0  0  0  0  0  0
   20.1932   17.7967   20.2421 C   0  0  0  0  0  0  0  0  0  0  0  0
   21.2078   18.0179   19.8861 H   0  0  0  0  0  0  0  0  0  0  0  0
   19.7347   17.0939   19.5345 H   0  0  0  0  0  0  0  0  0  0  0  0
   20.2715   17.2865   21.2101 H   0  0  0  0  0  0  0  0  0  0  0  0
  1  2  1  0  0  0  0
  1  3  1  0  0  0  0
  1  4  1  0  0  0  0
  1  5  1  0  0  0  0
  5  6  1  0  0  0  0
  5  7  1  0  0  0  0
  5  8  1  0  0  0  0
  8  9  1  0  0  0  0
  8 10  1  0  0  0  0
  8 11  1  0  0  0  0
 11 12  1  0  0  0  0
 11 13  1  0  0  0  0
 11 14  1  0  0  0  0
 14 15  1  0  0  0  0
 14 16  1  0  0  0  0
 14 17  1  0  0  0  0
 17 18  1  0  0  0  0
 17 19  1  0  0  0  0
 17 20  1  0  0  0  0
 20 21  1  0  0  0  0
 20 22  1  0  0  0  0
 20 23  1  0  0  0  0
M  END
> <VM2 Rank>
36

> <Conf_Id>
354

> <Probability>
0.69

> <Sum Probability>
96.29

> <Delta G>
1.701

> <G>
39.618

> <E>
11.563

> <-TS>
28.055

> <U+W>
-7.216

> <U>
48.781

> <W>
-55.997

> <W(PB)>
-58.047

> <W(SA)>
2.050

> <Valence>
2.784

> <Coulomb>
45.396

> <VdW>
0.600

> <VdW6>
-6.752

> <VdW12>
7.352

> <Bond>
0.213

> <Angle>
1.043

> <Pdih>
1.528

> <Idih>
0.000

> <Tether>
0.000

$$$$
VeraChem MOL file


 23 22  0  0  0  0  0  0  0  0999 V2000     
   20.0046   17.8669   25.2356 N   0  3  0  0  0  0  0  0  0  0  0  0
   20.9157   17.5188   24.9209 H   0  0  0  0  0  0  0  0  0  0  0  0
   19.2867   17.3317   24.7380 H   0  0  0  0  0  0  0  0  0  0  0  0
   19.9206   17.6289   26.2297 H   0  0  0  0  0  0  0  0  0  0  0  0
   19.8587   19.3577   25.0002 C   0  0  0  0  0  0  0  0  0  0  0  0
   20.6285   19.8636   25.5893 H   0  0  0  0  0  0  0  0  0  0  0  0
   18.8811   19.6672   25.3796 H   0  0  0  0  0  0  0  0  0  0  0  0
   19.9947   19.7682   23.5212 C   0  0  0  0  0  0  0  0  0  0  0  0
   19.9708   20.8643   23.4605 H   0  0  0  0  0  0  0  0  0  0  0  0
   20.9782   19.4533   23.1501 H   0  0  0  0  0  0  0  0  0  0  0  0
   18.8688   19.1806   22.6343 C   0  0  0  0  0  0  0  0  0  0  0  0
   17.8964   19.4273   23.0826 H   0  0  0  0  0  0  0  0  0  0  0  0
   18.9282   18.0848   22.6242 H   0  0  0  0  0  0  0  0  0  0  0  0
   18.8857   19.7169   21.1795 C   0  0  0  0  0  0  0  0  0  0  0  0
   18.0367   19.2827   20.6338 H   0  0  0  0  0  0  0  0  0  0  0  0
   18.7087   20.8011   21.1961 H   0  0  0  0  0  0  0  0  0  0  0  0
   20.1876   19.4357   20.3864 C   0  0  0  0  0  0  0  0  0  0  0  0
   21.0343   19.9614   20.8476 H   0  0  0  0  0  0  0  0  0  0  0  0
   20.0822   19.8626   19.3793 H   0  0  0  0  0  0  0  0  0  0  0  0
   20.5160   17.9310   20.2568 C   0  0  0  0  0  0  0  0  0  0  0  0
   20.7474   17.4844   21.2317 H   0  0  0  0  0  0  0  0  0  0  0  0
   21.3902   17.7827   19.6098 H   0  0  0  0  0  0  0  0  0  0  0  0
   19.6748   17.3801   19.8163 H   0  0  0  0  0  0  0  0  0  0  0  0
  1  2  1  0  0  0  0
  1  3  1  0  0  0  0
  1  4  1  0  0  0  0
  1  5  1  0  0  0  0
  5  6  1  0  0  0  0
  5  7  1  0  0  0  0
  5  8  1  0  0  0  0
  8  9  1  0  0  0  0
  8 10  1  0  0  0  0
  8 11  1  0  0  0  0
 11 12  1  0  0  0  0
 11 13  1  0  0  0  0
 11 14  1  0  0  0  0
 14 15  1  0  0  0  0
 14 16  1  0  0  0  0
 14 17  1  0  0  0  0
 17 18  1  0  0  0  0
 17 19  1  0  0  0  0
 17 20  1  0  0  0  0
 20 21  1  0  0  0  0
 20 22  1  0  0  0  0
 20 23  1  0  0  0  0
M  END
> <VM2 Rank>
37

> <Conf_Id>
340

> <Probability>
0.65

> <Sum Probability>
96.93

> <Delta G>
1.740

> <G>
39.656

> <E>
11.601

> <-TS>
28.055

> <U+W>
-7.178

> <U>
48.780

> <W>
-55.958

> <W(PB)>
-58.030

> <W(SA)>
2.071

> <Valence>
2.784

> <Coulomb>
45.396

> <VdW>
0.600

> <VdW6>
-6.752

> <VdW12>
7.352

> <Bond>
0.213

> <Angle>
1.043

> <Pdih>
1.528

> <Idih>
0.000

> <Tether>
0.000

$$$$
VeraChem MOL file


 23 22  0  0  0  0  0  0  0  0999 V2000     
   19.2151   18.1524   25.5913 N   0  3  0  0  0  0  0  0  0  0  0  0
   20.0390   18.1689   26.2009 H   0  0  0  0  0  0  0  0  0  0  0  0
   19.1203   17.1948   25.2382 H   0  0  0  0  0  0  0  0  0  0  0  0
   18.4001   18.3327   26.1872 H   0  0  0  0  0  0  0  0  0  0  0  0
   19.3243   19.1618   24.4666 C   0  0  0  0  0  0  0  0  0  0  0  0
   19.3931   20.1579   24.9119 H   0  0  0  0  0  0  0  0  0  0  0  0
   18.4043   19.1104   23.8786 H   0  0  0  0  0  0  0  0  0  0  0  0
   20.5393   18.9183   23.5522 C   0  0  0  0  0  0  0  0  0  0  0  0
   21.4545   18.9350   24.1587 H   0  0  0  0  0  0  0  0  0  0  0  0
   20.4781   17.9135   23.1149 H   0  0  0  0  0  0  0  0  0  0  0  0
   20.6642   19.9779   22.4294 C   0  0  0  0  0  0  0  0  0  0  0  0
   21.5582   19.7616   21.8294 H   0  0  0  0  0  0  0  0  0  0  0  0
   20.8459   20.9600   22.8873 H   0  0  0  0  0  0  0  0  0  0  0  0
   19.4277   20.0879   21.4969 C   0  0  0  0  0  0  0  0  0  0  0  0
   18.5705   20.4652   22.0706 H   0  0  0  0  0  0  0  0  0  0  0  0
   19.6309   20.8520   20.7340 H   0  0  0  0  0  0  0  0  0  0  0  0
   19.0166   18.7719   20.7888 C   0  0  0  0  0  0  0  0  0  0  0  0
   18.1292   18.9690   20.1712 H   0  0  0  0  0  0  0  0  0  0  0  0
   18.7067   18.0227   21.5296 H   0  0  0  0  0  0  0  0  0  0  0  0
   20.1287   18.1870   19.8889 C   0  0  0  0  0  0  0  0  0  0  0  0
   20.4639   18.9235   19.1472 H   0  0  0  0  0  0  0  0  0  0  0  0
   19.7608   17.3069   19.3457 H   0  0  0  0  0  0  0  0  0  0  0  0
   20.9988   17.8719   20.4780 H   0  0  0  0  0  0  0  0  0  0  0  0
  1  2  1  0  0  0  0
  1  3  1  0  0  0  0
  1  4  1  0  0  0  0
  1  5  1  0  0  0  0
  5  6  1  0  0  0  0
  5  7  1  0  0  0  0
  5  8  1  0  0  0  0
  8  9  1  0  0  0  0
  8 10  1  0  0  0  0
  8 11  1  0  0  0  0
 11 12  1  0  0  0  0
 11 13  1  0  0  0  0
 11 14  1  0  0  0  0
 14 15  1  0  0  0  0
 14 16  1  0  0  0  0
 14 17  1  0  0  0  0
 17 18  1  0  0  0  0
 17 19  1  0  0  0  0
 17 20  1  0  0  0  0
 20 21  1  0  0  0  0
 20 22  1  0  0  0  0
 20 23  1  0  0  0  0
M  END
> <VM2 Rank>
38

> <Conf_Id>
288

> <Probability>
0.65

> <Sum Probability>
97.58

> <Delta G>
1.740

> <G>
39.656

> <E>
11.472

> <-TS>
28.184

> <U+W>
-7.307

> <U>
48.641

> <W>
-55.948

> <W(PB)>
-58.032

> <W(SA)>
2.084

> <Valence>
2.922

> <Coulomb>
45.269

> <VdW>
0.450

> <VdW6>
-7.045

> <VdW12>
7.495

> <Bond>
0.220

> <Angle>
1.205

> <Pdih>
1.497

> <Idih>
0.000

> <Tether>
0.000

$$$$
VeraChem MOL file


 23 22  0  0  0  0  0  0  0  0999 V2000     
   20.5356   18.7019   25.6516 N   0  3  0  0  0  0  0  0  0  0  0  0
   21.3076   18.1048   25.3382 H   0  0  0  0  0  0  0  0  0  0  0  0
   19.8982   18.1105   26.1946 H   0  0  0  0  0  0  0  0  0  0  0  0
   20.9337   19.3869   26.3029 H   0  0  0  0  0  0  0  0  0  0  0  0
   19.8317   19.3729   24.4898 C   0  0  0  0  0  0  0  0  0  0  0  0
   20.5596   20.0069   23.9769 H   0  0  0  0  0  0  0  0  0  0  0  0
   19.0435   20.0126   24.8959 H   0  0  0  0  0  0  0  0  0  0  0  0
   19.2223   18.3703   23.4922 C   0  0  0  0  0  0  0  0  0  0  0  0
   20.0106   17.7189   23.0937 H   0  0  0  0  0  0  0  0  0  0  0  0
   18.5210   17.7145   24.0250 H   0  0  0  0  0  0  0  0  0  0  0  0
   18.4714   19.0655   22.3295 C   0  0  0  0  0  0  0  0  0  0  0  0
   17.6130   19.6150   22.7399 H   0  0  0  0  0  0  0  0  0  0  0  0
   18.0436   18.2993   21.6693 H   0  0  0  0  0  0  0  0  0  0  0  0
   19.3338   20.0488   21.4926 C   0  0  0  0  0  0  0  0  0  0  0  0
   18.7093   20.4686   20.6921 H   0  0  0  0  0  0  0  0  0  0  0  0
   19.6239   20.9034   22.1186 H   0  0  0  0  0  0  0  0  0  0  0  0
   20.6090   19.4343   20.8612 C   0  0  0  0  0  0  0  0  0  0  0  0
   21.2995   19.1012   21.6476 H   0  0  0  0  0  0  0  0  0  0  0  0
   21.1402   20.2216   20.3084 H   0  0  0  0  0  0  0  0  0  0  0  0
   20.3122   18.2635   19.8970 C   0  0  0  0  0  0  0  0  0  0  0  0
   21.2356   17.9206   19.4126 H   0  0  0  0  0  0  0  0  0  0  0  0
   19.6129   18.5697   19.1083 H   0  0  0  0  0  0  0  0  0  0  0  0
   19.8789   17.4060   20.4267 H   0  0  0  0  0  0  0  0  0  0  0  0
  1  2  1  0  0  0  0
  1  3  1  0  0  0  0
  1  4  1  0  0  0  0
  1  5  1  0  0  0  0
  5  6  1  0  0  0  0
  5  7  1  0  0  0  0
  5  8  1  0  0  0  0
  8  9  1  0  0  0  0
  8 10  1  0  0  0  0
  8 11  1  0  0  0  0
 11 12  1  0  0  0  0
 11 13  1  0  0  0  0
 11 14  1  0  0  0  0
 14 15  1  0  0  0  0
 14 16  1  0  0  0  0
 14 17  1  0  0  0  0
 17 18  1  0  0  0  0
 17 19  1  0  0  0  0
 17 20  1  0  0  0  0
 20 21  1  0  0  0  0
 20 22  1  0  0  0  0
 20 23  1  0  0  0  0
M  END
> <VM2 Rank>
39

> <Conf_Id>
258

> <Probability>
0.59

> <Sum Probability>
98.17

> <Delta G>
1.794

> <G>
39.710

> <E>
11.527

> <-TS>
28.183

> <U+W>
-7.252

> <U>
48.641

> <W>
-55.893

> <W(PB)>
-57.963

> <W(SA)>
2.070

> <Valence>
2.922

> <Coulomb>
45.269

> <VdW>
0.450

> <VdW6>
-7.045

> <VdW12>
7.494

> <Bond>
0.220

> <Angle>
1.205

> <Pdih>
1.497

> <Idih>
0.000

> <Tether>
0.000

$$$$
VeraChem MOL file


 23 22  0  0  0  0  0  0  0  0999 V2000     
   19.0917   18.9201   25.4294 N   0  3  0  0  0  0  0  0  0  0  0  0
   18.4690   19.4615   26.0383 H   0  0  0  0  0  0  0  0  0  0  0  0
   19.7487   18.4232   26.0392 H   0  0  0  0  0  0  0  0  0  0  0  0
   18.5165   18.2121   24.9632 H   0  0  0  0  0  0  0  0  0  0  0  0
   19.8106   19.8038   24.4292 C   0  0  0  0  0  0  0  0  0  0  0  0
   20.3787   20.5497   24.9917 H   0  0  0  0  0  0  0  0  0  0  0  0
   19.0569   20.3275   23.8356 H   0  0  0  0  0  0  0  0  0  0  0  0
   20.7637   19.0314   23.4951 C   0  0  0  0  0  0  0  0  0  0  0  0
   21.2979   19.7506   22.8611 H   0  0  0  0  0  0  0  0  0  0  0  0
   21.5341   18.5339   24.0989 H   0  0  0  0  0  0  0  0  0  0  0  0
   20.0542   17.9783   22.6041 C   0  0  0  0  0  0  0  0  0  0  0  0
   19.6562   17.1760   23.2396 H   0  0  0  0  0  0  0  0  0  0  0  0
   20.8010   17.4950   21.9603 H   0  0  0  0  0  0  0  0  0  0  0  0
   18.9011   18.5378   21.7278 C   0  0  0  0  0  0  0  0  0  0  0  0
   18.4813   17.7148   21.1331 H   0  0  0  0  0  0  0  0  0  0  0  0
   18.0831   18.8808   22.3753 H   0  0  0  0  0  0  0  0  0  0  0  0
   19.3003   19.6912   20.7726 C   0  0  0  0  0  0  0  0  0  0  0  0
   19.6301   20.5655   21.3497 H   0  0  0  0  0  0  0  0  0  0  0  0
   18.4062   20.0145   20.2214 H   0  0  0  0  0  0  0  0  0  0  0  0
   20.3945   19.2944   19.7559 C   0  0  0  0  0  0  0  0  0  0  0  0
   20.5789   20.1142   19.0497 H   0  0  0  0  0  0  0  0  0  0  0  0
   20.0927   18.4128   19.1757 H   0  0  0  0  0  0  0  0  0  0  0  0
   21.3448   19.0685   20.2552 H   0  0  0  0  0  0  0  0  0  0  0  0
  1  2  1  0  0  0  0
  1  3  1  0  0  0  0
  1  4  1  0  0  0  0
  1  5  1  0  0  0  0
  5  6  1  0  0  0  0
  5  7  1  0  0  0  0
  5  8  1  0  0  0  0
  8  9  1  0  0  0  0
  8 10  1  0  0  0  0
  8 11  1  0  0  0  0
 11 12  1  0  0  0  0
 11 13  1  0  0  0  0
 11 14  1  0  0  0  0
 14 15  1  0  0  0  0
 14 16  1  0  0  0  0
 14 17  1  0  0  0  0
 17 18  1  0  0  0  0
 17 19  1  0  0  0  0
 17 20  1  0  0  0  0
 20 21  1  0  0  0  0
 20 22  1  0  0  0  0
 20 23  1  0  0  0  0
M  END
> <VM2 Rank>
40

> <Conf_Id>
737

> <Probability>
0.32

> <Sum Probability>
98.49

> <Delta G>
2.162

> <G>
40.078

> <E>
11.702

> <-TS>
28.376

> <U+W>
-7.077

> <U>
48.991

> <W>
-56.068

> <W(PB)>
-58.109

> <W(SA)>
2.041

> <Valence>
3.025

> <Coulomb>
45.511

> <VdW>
0.456

> <VdW6>
-7.728

> <VdW12>
8.183

> <Bond>
0.246

> <Angle>
1.276

> <Pdih>
1.503

> <Idih>
0.000

> <Tether>
0.000

$$$$
VeraChem MOL file


 23 22  0  0  0  0  0  0  0  0999 V2000     
   20.0913   19.3358   25.4752 N   0  3  0  0  0  0  0  0  0  0  0  0
   19.9348   18.5002   26.0477 H   0  0  0  0  0  0  0  0  0  0  0  0
   20.0975   20.1388   26.1130 H   0  0  0  0  0  0  0  0  0  0  0  0
   21.0325   19.2590   25.0781 H   0  0  0  0  0  0  0  0  0  0  0  0
   19.0386   19.4825   24.3942 C   0  0  0  0  0  0  0  0  0  0  0  0
   19.2428   20.4049   23.8444 H   0  0  0  0  0  0  0  0  0  0  0  0
   18.0681   19.5881   24.8866 H   0  0  0  0  0  0  0  0  0  0  0  0
   18.9892   18.2931   23.4142 C   0  0  0  0  0  0  0  0  0  0  0  0
   18.7540   17.3771   23.9721 H   0  0  0  0  0  0  0  0  0  0  0  0
   18.1542   18.4426   22.7178 H   0  0  0  0  0  0  0  0  0  0  0  0
   20.3020   18.0816   22.6154 C   0  0  0  0  0  0  0  0  0  0  0  0
   20.1702   17.2326   21.9316 H   0  0  0  0  0  0  0  0  0  0  0  0
   21.1002   17.7772   23.3055 H   0  0  0  0  0  0  0  0  0  0  0  0
   20.7828   19.3211   21.8135 C   0  0  0  0  0  0  0  0  0  0  0  0
   21.0635   20.1215   22.5111 H   0  0  0  0  0  0  0  0  0  0  0  0
   21.7064   19.0573   21.2802 H   0  0  0  0  0  0  0  0  0  0  0  0
   19.7599   19.8825   20.7933 C   0  0  0  0  0  0  0  0  0  0  0  0
   20.2011   20.7615   20.3029 H   0  0  0  0  0  0  0  0  0  0  0  0
   18.8645   20.2469   21.3144 H   0  0  0  0  0  0  0  0  0  0  0  0
   19.3521   18.8603   19.7082 C   0  0  0  0  0  0  0  0  0  0  0  0
   18.6969   19.3306   18.9637 H   0  0  0  0  0  0  0  0  0  0  0  0
   18.8066   18.0118   20.1395 H   0  0  0  0  0  0  0  0  0  0  0  0
   20.2334   18.4711   19.1821 H   0  0  0  0  0  0  0  0  0  0  0  0
  1  2  1  0  0  0  0
  1  3  1  0  0  0  0
  1  4  1  0  0  0  0
  1  5  1  0  0  0  0
  5  6  1  0  0  0  0
  5  7  1  0  0  0  0
  5  8  1  0  0  0  0
  8  9  1  0  0  0  0
  8 10  1  0  0  0  0
  8 11  1  0  0  0  0
 11 12  1  0  0  0  0
 11 13  1  0  0  0  0
 11 14  1  0  0  0  0
 14 15  1  0  0  0  0
 14 16  1  0  0  0  0
 14 17  1  0  0  0  0
 17 18  1  0  0  0  0
 17 19  1  0  0  0  0
 17 20  1  0  0  0  0
 20 21  1  0  0  0  0
 20 22  1  0  0  0  0
 20 23  1  0  0  0  0
M  END
> <VM2 Rank>
41

> <Conf_Id>
735

> <Probability>
0.31

> <Sum Probability>
98.80

> <Delta G>
2.186

> <G>
40.102

> <E>
11.727

> <-TS>
28.376

> <U+W>
-7.052

> <U>
48.991

> <W>
-56.043

> <W(PB)>
-58.100

> <W(SA)>
2.057

> <Valence>
3.025

> <Coulomb>
45.510

> <VdW>
0.456

> <VdW6>
-7.727

> <VdW12>
8.183

> <Bond>
0.246

> <Angle>
1.276

> <Pdih>
1.503

> <Idih>
0.000

> <Tether>
0.000

$$$$
VeraChem MOL file


 23 22  0  0  0  0  0  0  0  0999 V2000     
   20.6331   18.0145   24.8317 N   0  3  0  0  0  0  0  0  0  0  0  0
   21.4598   17.9710   25.4373 H   0  0  0  0  0  0  0  0  0  0  0  0
   20.9551   17.8717   23.8707 H   0  0  0  0  0  0  0  0  0  0  0  0
   20.0432   17.2125   25.0757 H   0  0  0  0  0  0  0  0  0  0  0  0
   19.8896   19.3269   24.9895 C   0  0  0  0  0  0  0  0  0  0  0  0
   20.5804   20.1468   24.7756 H   0  0  0  0  0  0  0  0  0  0  0  0
   19.5925   19.3998   26.0393 H   0  0  0  0  0  0  0  0  0  0  0  0
   18.6335   19.4551   24.1027 C   0  0  0  0  0  0  0  0  0  0  0  0
   18.0717   18.5116   24.1074 H   0  0  0  0  0  0  0  0  0  0  0  0
   17.9730   20.2008   24.5649 H   0  0  0  0  0  0  0  0  0  0  0  0
   18.9159   19.9084   22.6473 C   0  0  0  0  0  0  0  0  0  0  0  0
   19.4217   20.8838   22.6599 H   0  0  0  0  0  0  0  0  0  0  0  0
   17.9510   20.0707   22.1472 H   0  0  0  0  0  0  0  0  0  0  0  0
   19.7493   18.9057   21.8144 C   0  0  0  0  0  0  0  0  0  0  0  0
   20.7688   18.8465   22.2149 H   0  0  0  0  0  0  0  0  0  0  0  0
   19.3068   17.9028   21.8911 H   0  0  0  0  0  0  0  0  0  0  0  0
   19.8257   19.3199   20.3280 C   0  0  0  0  0  0  0  0  0  0  0  0
   20.2612   20.3256   20.2450 H   0  0  0  0  0  0  0  0  0  0  0  0
   18.8128   19.3773   19.9053 H   0  0  0  0  0  0  0  0  0  0  0  0
   20.6689   18.3267   19.5003 C   0  0  0  0  0  0  0  0  0  0  0  0
   21.6991   18.2739   19.8761 H   0  0  0  0  0  0  0  0  0  0  0  0
   20.7101   18.6364   18.4480 H   0  0  0  0  0  0  0  0  0  0  0  0
   20.2391   17.3172   19.5375 H   0  0  0  0  0  0  0  0  0  0  0  0
  1  2  1  0  0  0  0
  1  3  1  0  0  0  0
  1  4  1  0  0  0  0
  1  5  1  0  0  0  0
  5  6  1  0  0  0  0
  5  7  1  0  0  0  0
  5  8  1  0  0  0  0
  8  9  1  0  0  0  0
  8 10  1  0  0  0  0
  8 11  1  0  0  0  0
 11 12  1  0  0  0  0
 11 13  1  0  0  0  0
 11 14  1  0  0  0  0
 14 15  1  0  0  0  0
 14 16  1  0  0  0  0
 14 17  1  0  0  0  0
 17 18  1  0  0  0  0
 17 19  1  0  0  0  0
 17 20  1  0  0  0  0
 20 21  1  0  0  0  0
 20 22  1  0  0  0  0
 20 23  1  0  0  0  0
M  END
> <VM2 Rank>
42

> <Conf_Id>
641

> <Probability>
0.11

> <Sum Probability>
98.90

> <Delta G>
2.811

> <G>
40.728

> <E>
13.062

> <-TS>
27.665

> <U+W>
-5.717

> <U>
50.170

> <W>
-55.887

> <W(PB)>
-57.991

> <W(SA)>
2.104

> <Valence>
3.335

> <Coulomb>
46.425

> <VdW>
0.410

> <VdW6>
-6.121

> <VdW12>
6.531

> <Bond>
0.172

> <Angle>
0.958

> <Pdih>
2.205

> <Idih>
0.000

> <Tether>
0.000

$$$$
VeraChem MOL file


 23 22  0  0  0  0  0  0  0  0999 V2000     
   19.6968   17.6250   24.7892 N   0  3  0  0  0  0  0  0  0  0  0  0
   19.6464   17.3273   23.8112 H   0  0  0  0  0  0  0  0  0  0  0  0
   19.1002   16.9896   25.3299 H   0  0  0  0  0  0  0  0  0  0  0  0
   20.6597   17.4689   25.1040 H   0  0  0  0  0  0  0  0  0  0  0  0
   19.2774   19.0722   24.9617 C   0  0  0  0  0  0  0  0  0  0  0  0
   19.3530   19.3003   26.0284 H   0  0  0  0  0  0  0  0  0  0  0  0
   18.2286   19.1687   24.6685 H   0  0  0  0  0  0  0  0  0  0  0  0
   20.1373   20.0805   24.1712 C   0  0  0  0  0  0  0  0  0  0  0  0
   20.0373   21.0593   24.6590 H   0  0  0  0  0  0  0  0  0  0  0  0
   21.1993   19.8123   24.2499 H   0  0  0  0  0  0  0  0  0  0  0  0
   19.7310   20.2474   22.6845 C   0  0  0  0  0  0  0  0  0  0  0  0
   20.3321   21.0612   22.2557 H   0  0  0  0  0  0  0  0  0  0  0  0
   18.6844   20.5770   22.6263 H   0  0  0  0  0  0  0  0  0  0  0  0
   19.9205   18.9768   21.8221 C   0  0  0  0  0  0  0  0  0  0  0  0
   20.9352   18.5802   21.9652 H   0  0  0  0  0  0  0  0  0  0  0  0
   19.2157   18.2003   22.1441 H   0  0  0  0  0  0  0  0  0  0  0  0
   19.6887   19.2630   20.3217 C   0  0  0  0  0  0  0  0  0  0  0  0
   20.3918   20.0343   19.9772 H   0  0  0  0  0  0  0  0  0  0  0  0
   18.6774   19.6668   20.1729 H   0  0  0  0  0  0  0  0  0  0  0  0
   19.8642   17.9920   19.4636 C   0  0  0  0  0  0  0  0  0  0  0  0
   20.8778   17.5830   19.5664 H   0  0  0  0  0  0  0  0  0  0  0  0
   19.6975   18.2154   18.4018 H   0  0  0  0  0  0  0  0  0  0  0  0
   19.1494   17.2132   19.7599 H   0  0  0  0  0  0  0  0  0  0  0  0
  1  2  1  0  0  0  0
  1  3  1  0  0  0  0
  1  4  1  0  0  0  0
  1  5  1  0  0  0  0
  5  6  1  0  0  0  0
  5  7  1  0  0  0  0
  5  8  1  0  0  0  0
  8  9  1  0  0  0  0
  8 10  1  0  0  0  0
  8 11  1  0  0  0  0
 11 12  1  0  0  0  0
 11 13  1  0  0  0  0
 11 14  1  0  0  0  0
 14 15  1  0  0  0  0
 14 16  1  0  0  0  0
 14 17  1  0  0  0  0
 17 18  1  0  0  0  0
 17 19  1  0  0  0  0
 17 20  1  0  0  0  0
 20 21  1  0  0  0  0
 20 22  1  0  0  0  0
 20 23  1  0  0  0  0
M  END
> <VM2 Rank>
43

> <Conf_Id>
895

> <Probability>
0.11

> <Sum Probability>
99.01

> <Delta G>
2.817

> <G>
40.733

> <E>
13.068

> <-TS>
27.665

> <U+W>
-5.711

> <U>
50.170

> <W>
-55.881

> <W(PB)>
-57.975

> <W(SA)>
2.095

> <Valence>
3.335

> <Coulomb>
46.425

> <VdW>
0.410

> <VdW6>
-6.121

> <VdW12>
6.530

> <Bond>
0.172

> <Angle>
0.958

> <Pdih>
2.206

> <Idih>
0.000

> <Tether>
0.000

$$$$
VeraChem MOL file


 23 22  0  0  0  0  0  0  0  0999 V2000     
   20.6932   18.8414   25.6434 N   0  3  0  0  0  0  0  0  0  0  0  0
   20.1203   19.3021   26.3578 H   0  0  0  0  0  0  0  0  0  0  0  0
   21.6669   19.1074   25.8254 H   0  0  0  0  0  0  0  0  0  0  0  0
   20.6245   17.8318   25.8070 H   0  0  0  0  0  0  0  0  0  0  0  0
   20.2591   19.2177   24.2413 C   0  0  0  0  0  0  0  0  0  0  0  0
   20.9289   18.7148   23.5397 H   0  0  0  0  0  0  0  0  0  0  0  0
   20.3830   20.2980   24.1275 H   0  0  0  0  0  0  0  0  0  0  0  0
   18.8023   18.8271   23.9357 C   0  0  0  0  0  0  0  0  0  0  0  0
   18.6946   17.7366   24.0070 H   0  0  0  0  0  0  0  0  0  0  0  0
   18.1510   19.2543   24.7098 H   0  0  0  0  0  0  0  0  0  0  0  0
   18.3014   19.3079   22.5503 C   0  0  0  0  0  0  0  0  0  0  0  0
   18.3338   20.4048   22.4951 H   0  0  0  0  0  0  0  0  0  0  0  0
   17.2391   19.0382   22.4716 H   0  0  0  0  0  0  0  0  0  0  0  0
   19.0462   18.6864   21.3397 C   0  0  0  0  0  0  0  0  0  0  0  0
   19.3445   17.6542   21.5695 H   0  0  0  0  0  0  0  0  0  0  0  0
   18.3400   18.6175   20.5006 H   0  0  0  0  0  0  0  0  0  0  0  0
   20.2702   19.5087   20.8680 C   0  0  0  0  0  0  0  0  0  0  0  0
   21.0116   19.6007   21.6701 H   0  0  0  0  0  0  0  0  0  0  0  0
   19.9531   20.5302   20.6157 H   0  0  0  0  0  0  0  0  0  0  0  0
   20.9436   18.8678   19.6358 C   0  0  0  0  0  0  0  0  0  0  0  0
   20.2435   18.8006   18.7928 H   0  0  0  0  0  0  0  0  0  0  0  0
   21.3020   17.8555   19.8640 H   0  0  0  0  0  0  0  0  0  0  0  0
   21.8054   19.4648   19.3105 H   0  0  0  0  0  0  0  0  0  0  0  0
  1  2  1  0  0  0  0
  1  3  1  0  0  0  0
  1  4  1  0  0  0  0
  1  5  1  0  0  0  0
  5  6  1  0  0  0  0
  5  7  1  0  0  0  0
  5  8  1  0  0  0  0
  8  9  1  0  0  0  0
  8 10  1  0  0  0  0
  8 11  1  0  0  0  0
 11 12  1  0  0  0  0
 11 13  1  0  0  0  0
 11 14  1  0  0  0  0
 14 15  1  0  0  0  0
 14 16  1  0  0  0  0
 14 17  1  0  0  0  0
 17 18  1  0  0  0  0
 17 19  1  0  0  0  0
 17 20  1  0  0  0  0
 20 21  1  0  0  0  0
 20 22  1  0  0  0  0
 20 23  1  0  0  0  0
M  END
> <VM2 Rank>
44

> <Conf_Id>
157

> <Probability>
0.10

> <Sum Probability>
99.11

> <Delta G>
2.836

> <G>
40.752

> <E>
13.106

> <-TS>
27.646

> <U+W>
-5.673

> <U>
50.133

> <W>
-55.806

> <W(PB)>
-57.922

> <W(SA)>
2.116

> <Valence>
4.276

> <Coulomb>
45.339

> <VdW>
0.519

> <VdW6>
-6.084

> <VdW12>
6.602

> <Bond>
0.193

> <Angle>
1.128

> <Pdih>
2.955

> <Idih>
0.000

> <Tether>
0.000

$$$$
VeraChem MOL file


 23 22  0  0  0  0  0  0  0  0999 V2000     
   19.0064   18.1396   25.5664 N   0  3  0  0  0  0  0  0  0  0  0  0
   19.7568   17.4707   25.7674 H   0  0  0  0  0  0  0  0  0  0  0  0
   18.1206   17.6318   25.6636 H   0  0  0  0  0  0  0  0  0  0  0  0
   19.0268   18.8471   26.3079 H   0  0  0  0  0  0  0  0  0  0  0  0
   19.1534   18.7577   24.1909 C   0  0  0  0  0  0  0  0  0  0  0  0
   18.3103   19.4357   24.0330 H   0  0  0  0  0  0  0  0  0  0  0  0
   19.0939   17.9513   23.4560 H   0  0  0  0  0  0  0  0  0  0  0  0
   20.4762   19.5236   24.0120 C   0  0  0  0  0  0  0  0  0  0  0  0
   20.5707   20.2611   24.8201 H   0  0  0  0  0  0  0  0  0  0  0  0
   21.3184   18.8283   24.1267 H   0  0  0  0  0  0  0  0  0  0  0  0
   20.5949   20.2620   22.6548 C   0  0  0  0  0  0  0  0  0  0  0  0
   21.5376   20.8264   22.6675 H   0  0  0  0  0  0  0  0  0  0  0  0
   19.7998   21.0147   22.5618 H   0  0  0  0  0  0  0  0  0  0  0  0
   20.6060   19.3353   21.4108 C   0  0  0  0  0  0  0  0  0  0  0  0
   21.2158   19.8136   20.6318 H   0  0  0  0  0  0  0  0  0  0  0  0
   21.1094   18.3884   21.6502 H   0  0  0  0  0  0  0  0  0  0  0  0
   19.2012   19.0641   20.8192 C   0  0  0  0  0  0  0  0  0  0  0  0
   18.7204   20.0175   20.5591 H   0  0  0  0  0  0  0  0  0  0  0  0
   18.5533   18.5786   21.5581 H   0  0  0  0  0  0  0  0  0  0  0  0
   19.2779   18.1747   19.5600 C   0  0  0  0  0  0  0  0  0  0  0  0
   19.8825   18.6498   18.7765 H   0  0  0  0  0  0  0  0  0  0  0  0
   18.2755   17.9963   19.1497 H   0  0  0  0  0  0  0  0  0  0  0  0
   19.7250   17.1994   19.7926 H   0  0  0  0  0  0  0  0  0  0  0  0
  1  2  1  0  0  0  0
  1  3  1  0  0  0  0
  1  4  1  0  0  0  0
  1  5  1  0  0  0  0
  5  6  1  0  0  0  0
  5  7  1  0  0  0  0
  5  8  1  0  0  0  0
  8  9  1  0  0  0  0
  8 10  1  0  0  0  0
  8 11  1  0  0  0  0
 11 12  1  0  0  0  0
 11 13  1  0  0  0  0
 11 14  1  0  0  0  0
 14 15  1  0  0  0  0
 14 16  1  0  0  0  0
 14 17  1  0  0  0  0
 17 18  1  0  0  0  0
 17 19  1  0  0  0  0
 17 20  1  0  0  0  0
 20 21  1  0  0  0  0
 20 22  1  0  0  0  0
 20 23  1  0  0  0  0
M  END
> <VM2 Rank>
45

> <Conf_Id>
150

> <Probability>
0.09

> <Sum Probability>
99.21

> <Delta G>
2.884

> <G>
40.800

> <E>
13.154

> <-TS>
27.646

> <U+W>
-5.625

> <U>
50.133

> <W>
-55.759

> <W(PB)>
-57.887

> <W(SA)>
2.128

> <Valence>
4.276

> <Coulomb>
45.339

> <VdW>
0.519

> <VdW6>
-6.084

> <VdW12>
6.603

> <Bond>
0.193

> <Angle>
1.127

> <Pdih>
2.955

> <Idih>
0.000

> <Tether>
0.000

$$$$
VeraChem MOL file


 23 22  0  0  0  0  0  0  0  0999 V2000     
   20.0627   17.8546   24.9967 N   0  3  0  0  0  0  0  0  0  0  0  0
   20.7952   17.4772   25.6075 H   0  0  0  0  0  0  0  0  0  0  0  0
   20.1607   17.3938   24.0880 H   0  0  0  0  0  0  0  0  0  0  0  0
   19.1642   17.5586   25.3914 H   0  0  0  0  0  0  0  0  0  0  0  0
   20.1536   19.3635   24.8769 C   0  0  0  0  0  0  0  0  0  0  0  0
   21.1484   19.6239   24.5055 H   0  0  0  0  0  0  0  0  0  0  0  0
   20.0525   19.7697   25.8870 H   0  0  0  0  0  0  0  0  0  0  0  0
   19.0750   19.9953   23.9722 C   0  0  0  0  0  0  0  0  0  0  0  0
   18.0971   19.5399   24.1775 H   0  0  0  0  0  0  0  0  0  0  0  0
   18.9800   21.0522   24.2546 H   0  0  0  0  0  0  0  0  0  0  0  0
   19.3921   19.9357   22.4559 C   0  0  0  0  0  0  0  0  0  0  0  0
   20.3488   20.4415   22.2689 H   0  0  0  0  0  0  0  0  0  0  0  0
   18.6272   20.5175   21.9233 H   0  0  0  0  0  0  0  0  0  0  0  0
   19.4314   18.5033   21.8672 C   0  0  0  0  0  0  0  0  0  0  0  0
   20.3101   17.9666   22.2458 H   0  0  0  0  0  0  0  0  0  0  0  0
   18.5458   17.9479   22.2055 H   0  0  0  0  0  0  0  0  0  0  0  0
   19.4643   18.4799   20.3200 C   0  0  0  0  0  0  0  0  0  0  0  0
   18.5735   18.9851   19.9212 H   0  0  0  0  0  0  0  0  0  0  0  0
   19.4030   17.4364   19.9806 H   0  0  0  0  0  0  0  0  0  0  0  0
   20.7369   19.1246   19.7251 C   0  0  0  0  0  0  0  0  0  0  0  0
   21.6432   18.6514   20.1247 H   0  0  0  0  0  0  0  0  0  0  0  0
   20.7843   20.1986   19.9445 H   0  0  0  0  0  0  0  0  0  0  0  0
   20.7517   19.0097   18.6335 H   0  0  0  0  0  0  0  0  0  0  0  0
  1  2  1  0  0  0  0
  1  3  1  0  0  0  0
  1  4  1  0  0  0  0
  1  5  1  0  0  0  0
  5  6  1  0  0  0  0
  5  7  1  0  0  0  0
  5  8  1  0  0  0  0
  8  9  1  0  0  0  0
  8 10  1  0  0  0  0
  8 11  1  0  0  0  0
 11 12  1  0  0  0  0
 11 13  1  0  0  0  0
 11 14  1  0  0  0  0
 14 15  1  0  0  0  0
 14 16  1  0  0  0  0
 14 17  1  0  0  0  0
 17 18  1  0  0  0  0
 17 19  1  0  0  0  0
 17 20  1  0  0  0  0
 20 21  1  0  0  0  0
 20 22  1  0  0  0  0
 20 23  1  0  0  0  0
M  END
> <VM2 Rank>
46

> <Conf_Id>
748

> <Probability>
0.05

> <Sum Probability>
99.26

> <Delta G>
3.293

> <G>
41.209

> <E>
13.408

> <-TS>
27.801

> <U+W>
-5.371

> <U>
50.658

> <W>
-56.029

> <W(PB)>
-58.111

> <W(SA)>
2.082

> <Valence>
3.781

> <Coulomb>
46.354

> <VdW>
0.523

> <VdW6>
-6.754

> <VdW12>
7.276

> <Bond>
0.207

> <Angle>
1.136

> <Pdih>
2.438

> <Idih>
0.000

> <Tether>
0.000

$$$$
VeraChem MOL file


 23 22  0  0  0  0  0  0  0  0999 V2000     
   20.3685   18.3573   25.8666 N   0  3  0  0  0  0  0  0  0  0  0  0
   21.2123   17.8684   25.5508 H   0  0  0  0  0  0  0  0  0  0  0  0
   19.6604   17.6421   26.0615 H   0  0  0  0  0  0  0  0  0  0  0  0
   20.5985   18.8005   26.7625 H   0  0  0  0  0  0  0  0  0  0  0  0
   19.8851   19.3683   24.8466 C   0  0  0  0  0  0  0  0  0  0  0  0
   20.6736   20.1133   24.7099 H   0  0  0  0  0  0  0  0  0  0  0  0
   19.0059   19.8702   25.2596 H   0  0  0  0  0  0  0  0  0  0  0  0
   19.5302   18.7351   23.4896 C   0  0  0  0  0  0  0  0  0  0  0  0
   20.4092   18.2134   23.0948 H   0  0  0  0  0  0  0  0  0  0  0  0
   18.7503   17.9763   23.6367 H   0  0  0  0  0  0  0  0  0  0  0  0
   19.0313   19.8008   22.4842 C   0  0  0  0  0  0  0  0  0  0  0  0
   19.7782   20.5986   22.3694 H   0  0  0  0  0  0  0  0  0  0  0  0
   18.1388   20.2800   22.9103 H   0  0  0  0  0  0  0  0  0  0  0  0
   18.6590   19.2162   21.0965 C   0  0  0  0  0  0  0  0  0  0  0  0
   18.3077   18.1803   21.2003 H   0  0  0  0  0  0  0  0  0  0  0  0
   17.8011   19.7813   20.7065 H   0  0  0  0  0  0  0  0  0  0  0  0
   19.7870   19.2925   20.0359 C   0  0  0  0  0  0  0  0  0  0  0  0
   20.0597   20.3429   19.8628 H   0  0  0  0  0  0  0  0  0  0  0  0
   19.3921   18.9199   19.0803 H   0  0  0  0  0  0  0  0  0  0  0  0
   21.0548   18.4869   20.3947 C   0  0  0  0  0  0  0  0  0  0  0  0
   21.7540   18.4757   19.5485 H   0  0  0  0  0  0  0  0  0  0  0  0
   20.8072   17.4458   20.6392 H   0  0  0  0  0  0  0  0  0  0  0  0
   21.5815   18.9318   21.2477 H   0  0  0  0  0  0  0  0  0  0  0  0
  1  2  1  0  0  0  0
  1  3  1  0  0  0  0
  1  4  1  0  0  0  0
  1  5  1  0  0  0  0
  5  6  1  0  0  0  0
  5  7  1  0  0  0  0
  5  8  1  0  0  0  0
  8  9  1  0  0  0  0
  8 10  1  0  0  0  0
  8 11  1  0  0  0  0
 11 12  1  0  0  0  0
 11 13  1  0  0  0  0
 11 14  1  0  0  0  0
 14 15  1  0  0  0  0
 14 16  1  0  0  0  0
 14 17  1  0  0  0  0
 17 18  1  0  0  0  0
 17 19  1  0  0  0  0
 17 20  1  0  0  0  0
 20 21  1  0  0  0  0
 20 22  1  0  0  0  0
 20 23  1  0  0  0  0
M  END
> <VM2 Rank>
47

> <Conf_Id>
464

> <Probability>
0.05

> <Sum Probability>
99.30

> <Delta G>
3.294

> <G>
41.210

> <E>
13.349

> <-TS>
27.861

> <U+W>
-5.430

> <U>
50.253

> <W>
-55.683

> <W(PB)>
-57.780

> <W(SA)>
2.097

> <Valence>
4.702

> <Coulomb>
44.992

> <VdW>
0.559

> <VdW6>
-6.152

> <VdW12>
6.711

> <Bond>
0.198

> <Angle>
1.163

> <Pdih>
3.341

> <Idih>
0.000

> <Tether>
0.000

$$$$
VeraChem MOL file


 23 22  0  0  0  0  0  0  0  0999 V2000     
   19.5597   18.0208   25.8297 N   0  3  0  0  0  0  0  0  0  0  0  0
   20.5480   18.0111   26.1018 H   0  0  0  0  0  0  0  0  0  0  0  0
   19.3377   17.0888   25.4653 H   0  0  0  0  0  0  0  0  0  0  0  0
   19.0150   18.1418   26.6903 H   0  0  0  0  0  0  0  0  0  0  0  0
   19.2625   19.1093   24.8183 C   0  0  0  0  0  0  0  0  0  0  0  0
   19.4924   20.0725   25.2818 H   0  0  0  0  0  0  0  0  0  0  0  0
   18.1921   19.0812   24.5970 H   0  0  0  0  0  0  0  0  0  0  0  0
   20.0649   18.9575   23.5139 C   0  0  0  0  0  0  0  0  0  0  0  0
   21.1383   18.9695   23.7454 H   0  0  0  0  0  0  0  0  0  0  0  0
   19.8477   17.9799   23.0692 H   0  0  0  0  0  0  0  0  0  0  0  0
   19.7387   20.0951   22.5165 C   0  0  0  0  0  0  0  0  0  0  0  0
   19.9930   21.0512   22.9949 H   0  0  0  0  0  0  0  0  0  0  0  0
   18.6585   20.1330   22.3185 H   0  0  0  0  0  0  0  0  0  0  0  0
   20.5215   19.9910   21.1813 C   0  0  0  0  0  0  0  0  0  0  0  0
   20.7538   21.0097   20.8411 H   0  0  0  0  0  0  0  0  0  0  0  0
   21.4935   19.5057   21.3454 H   0  0  0  0  0  0  0  0  0  0  0  0
   19.7579   19.2804   20.0346 C   0  0  0  0  0  0  0  0  0  0  0  0
   20.3729   19.3281   19.1250 H   0  0  0  0  0  0  0  0  0  0  0  0
   18.8362   19.8339   19.8072 H   0  0  0  0  0  0  0  0  0  0  0  0
   19.4107   17.8029   20.3197 C   0  0  0  0  0  0  0  0  0  0  0  0
   18.6598   17.7162   21.1145 H   0  0  0  0  0  0  0  0  0  0  0  0
   20.3027   17.2360   20.6163 H   0  0  0  0  0  0  0  0  0  0  0  0
   18.9936   17.3272   19.4227 H   0  0  0  0  0  0  0  0  0  0  0  0
  1  2  1  0  0  0  0
  1  3  1  0  0  0  0
  1  4  1  0  0  0  0
  1  5  1  0  0  0  0
  5  6  1  0  0  0  0
  5  7  1  0  0  0  0
  5  8  1  0  0  0  0
  8  9  1  0  0  0  0
  8 10  1  0  0  0  0
  8 11  1  0  0  0  0
 11 12  1  0  0  0  0
 11 13  1  0  0  0  0
 11 14  1  0  0  0  0
 14 15  1  0  0  0  0
 14 16  1  0  0  0  0
 14 17  1  0  0  0  0
 17 18  1  0  0  0  0
 17 19  1  0  0  0  0
 17 20  1  0  0  0  0
 20 21  1  0  0  0  0
 20 22  1  0  0  0  0
 20 23  1  0  0  0  0
M  END
> <VM2 Rank>
48

> <Conf_Id>
939

> <Probability>
0.04

> <Sum Probability>
99.35

> <Delta G>
3.353

> <G>
41.269

> <E>
13.408

> <-TS>
27.861

> <U+W>
-5.371

> <U>
50.253

> <W>
-55.624

> <W(PB)>
-57.711

> <W(SA)>
2.087

> <Valence>
4.702

> <Coulomb>
44.992

> <VdW>
0.559

> <VdW6>
-6.152

> <VdW12>
6.711

> <Bond>
0.198

> <Angle>
1.163

> <Pdih>
3.340

> <Idih>
0.000

> <Tether>
0.000

$$$$
VeraChem MOL file


 23 22  0  0  0  0  0  0  0  0999 V2000     
   20.1978   17.9108   25.0029 N   0  3  0  0  0  0  0  0  0  0  0  0
   19.9034   17.1062   25.5669 H   0  0  0  0  0  0  0  0  0  0  0  0
   21.0074   18.3253   25.4754 H   0  0  0  0  0  0  0  0  0  0  0  0
   20.5256   17.5456   24.1047 H   0  0  0  0  0  0  0  0  0  0  0  0
   19.0749   18.9148   24.8278 C   0  0  0  0  0  0  0  0  0  0  0  0
   18.7800   19.2404   25.8290 H   0  0  0  0  0  0  0  0  0  0  0  0
   18.2211   18.4062   24.3722 H   0  0  0  0  0  0  0  0  0  0  0  0
   19.4548   20.1533   23.9895 C   0  0  0  0  0  0  0  0  0  0  0  0
   18.7514   20.9571   24.2442 H   0  0  0  0  0  0  0  0  0  0  0  0
   20.4478   20.5178   24.2846 H   0  0  0  0  0  0  0  0  0  0  0  0
   19.3921   19.9357   22.4559 C   0  0  0  0  0  0  0  0  0  0  0  0
   19.5582   20.9049   21.9657 H   0  0  0  0  0  0  0  0  0  0  0  0
   18.3770   19.6210   22.1791 H   0  0  0  0  0  0  0  0  0  0  0  0
   20.4244   18.9164   21.9124 C   0  0  0  0  0  0  0  0  0  0  0  0
   21.4130   19.1409   22.3360 H   0  0  0  0  0  0  0  0  0  0  0  0
   20.1584   17.9034   22.2389 H   0  0  0  0  0  0  0  0  0  0  0  0
   20.5378   18.9266   20.3689 C   0  0  0  0  0  0  0  0  0  0  0  0
   21.3461   18.2450   20.0690 H   0  0  0  0  0  0  0  0  0  0  0  0
   20.8361   19.9266   20.0243 H   0  0  0  0  0  0  0  0  0  0  0  0
   19.2342   18.4994   19.6566 C   0  0  0  0  0  0  0  0  0  0  0  0
   18.4234   19.2162   19.8369 H   0  0  0  0  0  0  0  0  0  0  0  0
   18.9023   17.5109   19.9997 H   0  0  0  0  0  0  0  0  0  0  0  0
   19.3898   18.4431   18.5715 H   0  0  0  0  0  0  0  0  0  0  0  0
  1  2  1  0  0  0  0
  1  3  1  0  0  0  0
  1  4  1  0  0  0  0
  1  5  1  0  0  0  0
  5  6  1  0  0  0  0
  5  7  1  0  0  0  0
  5  8  1  0  0  0  0
  8  9  1  0  0  0  0
  8 10  1  0  0  0  0
  8 11  1  0  0  0  0
 11 12  1  0  0  0  0
 11 13  1  0  0  0  0
 11 14  1  0  0  0  0
 14 15  1  0  0  0  0
 14 16  1  0  0  0  0
 14 17  1  0  0  0  0
 17 18  1  0  0  0  0
 17 19  1  0  0  0  0
 17 20  1  0  0  0  0
 20 21  1  0  0  0  0
 20 22  1  0  0  0  0
 20 23  1  0  0  0  0
M  END
> <VM2 Rank>
49

> <Conf_Id>
182

> <Probability>
0.04

> <Sum Probability>
99.39

> <Delta G>
3.367

> <G>
41.283

> <E>
13.482

> <-TS>
27.801

> <U+W>
-5.297

> <U>
50.658

> <W>
-55.955

> <W(PB)>
-58.037

> <W(SA)>
2.082

> <Valence>
3.782

> <Coulomb>
46.354

> <VdW>
0.522

> <VdW6>
-6.753

> <VdW12>
7.276

> <Bond>
0.207

> <Angle>
1.137

> <Pdih>
2.439

> <Idih>
0.000

> <Tether>
0.000

$$$$
VeraChem MOL file


 23 22  0  0  0  0  0  0  0  0999 V2000     
   18.8071   18.3049   25.1315 N   0  3  0  0  0  0  0  0  0  0  0  0
   19.0364   17.4633   24.5946 H   0  0  0  0  0  0  0  0  0  0  0  0
   17.8290   18.2153   25.4269 H   0  0  0  0  0  0  0  0  0  0  0  0
   19.3785   18.2863   25.9823 H   0  0  0  0  0  0  0  0  0  0  0  0
   19.0382   19.5683   24.3255 C   0  0  0  0  0  0  0  0  0  0  0  0
   18.7364   20.4146   24.9485 H   0  0  0  0  0  0  0  0  0  0  0  0
   18.3784   19.5380   23.4569 H   0  0  0  0  0  0  0  0  0  0  0  0
   20.5039   19.7633   23.8822 C   0  0  0  0  0  0  0  0  0  0  0  0
   20.6199   20.7588   23.4334 H   0  0  0  0  0  0  0  0  0  0  0  0
   21.1341   19.7644   24.7815 H   0  0  0  0  0  0  0  0  0  0  0  0
   21.0320   18.6835   22.8998 C   0  0  0  0  0  0  0  0  0  0  0  0
   20.6689   17.6881   23.1864 H   0  0  0  0  0  0  0  0  0  0  0  0
   22.1248   18.6376   23.0055 H   0  0  0  0  0  0  0  0  0  0  0  0
   20.7229   18.9495   21.4035 C   0  0  0  0  0  0  0  0  0  0  0  0
   21.1833   19.8988   21.0970 H   0  0  0  0  0  0  0  0  0  0  0  0
   21.2161   18.1672   20.8099 H   0  0  0  0  0  0  0  0  0  0  0  0
   19.2182   18.9712   21.0490 C   0  0  0  0  0  0  0  0  0  0  0  0
   18.7412   19.8513   21.4987 H   0  0  0  0  0  0  0  0  0  0  0  0
   18.7226   18.0826   21.4642 H   0  0  0  0  0  0  0  0  0  0  0  0
   18.9937   19.0163   19.5225 C   0  0  0  0  0  0  0  0  0  0  0  0
   19.4574   19.9085   19.0817 H   0  0  0  0  0  0  0  0  0  0  0  0
   17.9214   19.0438   19.2891 H   0  0  0  0  0  0  0  0  0  0  0  0
   19.4216   18.1315   19.0334 H   0  0  0  0  0  0  0  0  0  0  0  0
  1  2  1  0  0  0  0
  1  3  1  0  0  0  0
  1  4  1  0  0  0  0
  1  5  1  0  0  0  0
  5  6  1  0  0  0  0
  5  7  1  0  0  0  0
  5  8  1  0  0  0  0
  8  9  1  0  0  0  0
  8 10  1  0  0  0  0
  8 11  1  0  0  0  0
 11 12  1  0  0  0  0
 11 13  1  0  0  0  0
 11 14  1  0  0  0  0
 14 15  1  0  0  0  0
 14 16  1  0  0  0  0
 14 17  1  0  0  0  0
 17 18  1  0  0  0  0
 17 19  1  0  0  0  0
 17 20  1  0  0  0  0
 20 21  1  0  0  0  0
 20 22  1  0  0  0  0
 20 23  1  0  0  0  0
M  END
> <VM2 Rank>
50

> <Conf_Id>
559

> <Probability>
0.04

> <Sum Probability>
99.43

> <Delta G>
3.396

> <G>
41.312

> <E>
13.413

> <-TS>
27.899

> <U+W>
-5.366

> <U>
50.742

> <W>
-56.109

> <W(PB)>
-58.189

> <W(SA)>
2.080

> <Valence>
4.299

> <Coulomb>
45.940

> <VdW>
0.503

> <VdW6>
-6.823

> <VdW12>
7.326

> <Bond>
0.216

> <Angle>
1.353

> <Pdih>
2.730

> <Idih>
0.000

> <Tether>
0.000

$$$$
VeraChem MOL file


 23 22  0  0  0  0  0  0  0  0999 V2000     
   19.5925   17.9219   25.7385 N   0  3  0  0  0  0  0  0  0  0  0  0
   18.9054   17.2294   25.4237 H   0  0  0  0  0  0  0  0  0  0  0  0
   19.3927   18.1119   26.7265 H   0  0  0  0  0  0  0  0  0  0  0  0
   20.5129   17.4722   25.7021 H   0  0  0  0  0  0  0  0  0  0  0  0
   19.5468   19.1849   24.9026 C   0  0  0  0  0  0  0  0  0  0  0  0
   20.2795   19.8863   25.3108 H   0  0  0  0  0  0  0  0  0  0  0  0
   18.5519   19.6255   25.0107 H   0  0  0  0  0  0  0  0  0  0  0  0
   19.8432   18.9345   23.4133 C   0  0  0  0  0  0  0  0  0  0  0  0
   20.8370   18.4790   23.3100 H   0  0  0  0  0  0  0  0  0  0  0  0
   19.1096   18.2192   23.0214 H   0  0  0  0  0  0  0  0  0  0  0  0
   19.7826   20.2463   22.5985 C   0  0  0  0  0  0  0  0  0  0  0  0
   20.4208   20.9973   23.0848 H   0  0  0  0  0  0  0  0  0  0  0  0
   18.7604   20.6483   22.6298 H   0  0  0  0  0  0  0  0  0  0  0  0
   20.2366   20.1064   21.1222 C   0  0  0  0  0  0  0  0  0  0  0  0
   20.1939   21.1060   20.6679 H   0  0  0  0  0  0  0  0  0  0  0  0
   21.2930   19.8073   21.0783 H   0  0  0  0  0  0  0  0  0  0  0  0
   19.3719   19.1490   20.2619 C   0  0  0  0  0  0  0  0  0  0  0  0
   19.3158   19.5512   19.2406 H   0  0  0  0  0  0  0  0  0  0  0  0
   18.3385   19.1281   20.6350 H   0  0  0  0  0  0  0  0  0  0  0  0
   19.9424   17.7139   20.1770 C   0  0  0  0  0  0  0  0  0  0  0  0
   19.3063   17.0852   19.5406 H   0  0  0  0  0  0  0  0  0  0  0  0
   20.0042   17.2347   21.1601 H   0  0  0  0  0  0  0  0  0  0  0  0
   20.9493   17.7181   19.7396 H   0  0  0  0  0  0  0  0  0  0  0  0
  1  2  1  0  0  0  0
  1  3  1  0  0  0  0
  1  4  1  0  0  0  0
  1  5  1  0  0  0  0
  5  6  1  0  0  0  0
  5  7  1  0  0  0  0
  5  8  1  0  0  0  0
  8  9  1  0  0  0  0
  8 10  1  0  0  0  0
  8 11  1  0  0  0  0
 11 12  1  0  0  0  0
 11 13  1  0  0  0  0
 11 14  1  0  0  0  0
 14 15  1  0  0  0  0
 14 16  1  0  0  0  0
 14 17  1  0  0  0  0
 17 18  1  0  0  0  0
 17 19  1  0  0  0  0
 17 20  1  0  0  0  0
 20 21  1  0  0  0  0
 20 22  1  0  0  0  0
 20 23  1  0  0  0  0
M  END
> <VM2 Rank>
51

> <Conf_Id>
168

> <Probability>
0.04

> <Sum Probability>
99.47

> <Delta G>
3.401

> <G>
41.318

> <E>
13.465

> <-TS>
27.852

> <U+W>
-5.314

> <U>
50.301

> <W>
-55.615

> <W(PB)>
-57.714

> <W(SA)>
2.099

> <Valence>
4.724

> <Coulomb>
45.004

> <VdW>
0.574

> <VdW6>
-6.145

> <VdW12>
6.719

> <Bond>
0.198

> <Angle>
1.201

> <Pdih>
3.325

> <Idih>
0.000

> <Tether>
0.000

$$$$
VeraChem MOL file


 23 22  0  0  0  0  0  0  0  0999 V2000     
   20.7507   19.1096   25.2192 N   0  3  0  0  0  0  0  0  0  0  0  0
   21.2249   18.3698   24.6927 H   0  0  0  0  0  0  0  0  0  0  0  0
   20.2960   18.6652   26.0232 H   0  0  0  0  0  0  0  0  0  0  0  0
   21.4797   19.7270   25.5922 H   0  0  0  0  0  0  0  0  0  0  0  0
   19.7581   19.8665   24.3584 C   0  0  0  0  0  0  0  0  0  0  0  0
   20.3109   20.3393   23.5450 H   0  0  0  0  0  0  0  0  0  0  0  0
   19.3250   20.6580   24.9760 H   0  0  0  0  0  0  0  0  0  0  0  0
   18.6228   18.9843   23.7967 C   0  0  0  0  0  0  0  0  0  0  0  0
   18.1088   18.5111   24.6440 H   0  0  0  0  0  0  0  0  0  0  0  0
   17.8731   19.6213   23.3089 H   0  0  0  0  0  0  0  0  0  0  0  0
   19.0891   17.8791   22.8113 C   0  0  0  0  0  0  0  0  0  0  0  0
   18.3436   17.0721   22.8331 H   0  0  0  0  0  0  0  0  0  0  0  0
   20.0249   17.4214   23.1570 H   0  0  0  0  0  0  0  0  0  0  0  0
   19.2353   18.3338   21.3358 C   0  0  0  0  0  0  0  0  0  0  0  0
   19.4858   17.4513   20.7311 H   0  0  0  0  0  0  0  0  0  0  0  0
   18.2650   18.6911   20.9642 H   0  0  0  0  0  0  0  0  0  0  0  0
   20.3075   19.4222   21.0988 C   0  0  0  0  0  0  0  0  0  0  0  0
   21.2512   19.1295   21.5797 H   0  0  0  0  0  0  0  0  0  0  0  0
   19.9875   20.3674   21.5556 H   0  0  0  0  0  0  0  0  0  0  0  0
   20.5526   19.6615   19.5937 C   0  0  0  0  0  0  0  0  0  0  0  0
   21.3067   20.4450   19.4437 H   0  0  0  0  0  0  0  0  0  0  0  0
   19.6308   19.9801   19.0897 H   0  0  0  0  0  0  0  0  0  0  0  0
   20.9135   18.7489   19.1017 H   0  0  0  0  0  0  0  0  0  0  0  0
  1  2  1  0  0  0  0
  1  3  1  0  0  0  0
  1  4  1  0  0  0  0
  1  5  1  0  0  0  0
  5  6  1  0  0  0  0
  5  7  1  0  0  0  0
  5  8  1  0  0  0  0
  8  9  1  0  0  0  0
  8 10  1  0  0  0  0
  8 11  1  0  0  0  0
 11 12  1  0  0  0  0
 11 13  1  0  0  0  0
 11 14  1  0  0  0  0
 14 15  1  0  0  0  0
 14 16  1  0  0  0  0
 14 17  1  0  0  0  0
 17 18  1  0  0  0  0
 17 19  1  0  0  0  0
 17 20  1  0  0  0  0
 20 21  1  0  0  0  0
 20 22  1  0  0  0  0
 20 23  1  0  0  0  0
M  END
> <VM2 Rank>
52

> <Conf_Id>
739

> <Probability>
0.04

> <Sum Probability>
99.51

> <Delta G>
3.443

> <G>
41.360

> <E>
13.462

> <-TS>
27.898

> <U+W>
-5.318

> <U>
50.743

> <W>
-56.060

> <W(PB)>
-58.131

> <W(SA)>
2.071

> <Valence>
4.299

> <Coulomb>
45.941

> <VdW>
0.503

> <VdW6>
-6.823

> <VdW12>
7.326

> <Bond>
0.216

> <Angle>
1.355

> <Pdih>
2.728

> <Idih>
0.000

> <Tether>
0.000

$$$$
VeraChem MOL file


 23 22  0  0  0  0  0  0  0  0999 V2000     
   20.4226   18.2672   25.7763 N   0  3  0  0  0  0  0  0  0  0  0  0
   20.3517   18.5107   26.7702 H   0  0  0  0  0  0  0  0  0  0  0  0
   21.4196   18.2754   25.5383 H   0  0  0  0  0  0  0  0  0  0  0  0
   20.0978   17.2994   25.6831 H   0  0  0  0  0  0  0  0  0  0  0  0
   19.6253   19.2176   24.9061 C   0  0  0  0  0  0  0  0  0  0  0  0
   20.0033   20.2292   25.0768 H   0  0  0  0  0  0  0  0  0  0  0  0
   18.5828   19.1804   25.2335 H   0  0  0  0  0  0  0  0  0  0  0  0
   19.7100   18.8791   23.4072 C   0  0  0  0  0  0  0  0  0  0  0  0
   20.7618   18.9065   23.0967 H   0  0  0  0  0  0  0  0  0  0  0  0
   19.3430   17.8575   23.2418 H   0  0  0  0  0  0  0  0  0  0  0  0
   18.8871   19.8738   22.5576 C   0  0  0  0  0  0  0  0  0  0  0  0
   19.3176   20.8801   22.6552 H   0  0  0  0  0  0  0  0  0  0  0  0
   17.8697   19.9361   22.9685 H   0  0  0  0  0  0  0  0  0  0  0  0
   18.7820   19.5014   21.0559 C   0  0  0  0  0  0  0  0  0  0  0  0
   18.2555   18.5440   20.9397 H   0  0  0  0  0  0  0  0  0  0  0  0
   18.1396   20.2516   20.5743 H   0  0  0  0  0  0  0  0  0  0  0  0
   20.1335   19.4658   20.2967 C   0  0  0  0  0  0  0  0  0  0  0  0
   20.8449   20.1706   20.7493 H   0  0  0  0  0  0  0  0  0  0  0  0
   19.9674   19.8223   19.2704 H   0  0  0  0  0  0  0  0  0  0  0  0
   20.7555   18.0521   20.2140 C   0  0  0  0  0  0  0  0  0  0  0  0
   21.6966   18.0793   19.6496 H   0  0  0  0  0  0  0  0  0  0  0  0
   20.0797   17.3564   19.6999 H   0  0  0  0  0  0  0  0  0  0  0  0
   20.9749   17.6384   21.2043 H   0  0  0  0  0  0  0  0  0  0  0  0
  1  2  1  0  0  0  0
  1  3  1  0  0  0  0
  1  4  1  0  0  0  0
  1  5  1  0  0  0  0
  5  6  1  0  0  0  0
  5  7  1  0  0  0  0
  5  8  1  0  0  0  0
  8  9  1  0  0  0  0
  8 10  1  0  0  0  0
  8 11  1  0  0  0  0
 11 12  1  0  0  0  0
 11 13  1  0  0  0  0
 11 14  1  0  0  0  0
 14 15  1  0  0  0  0
 14 16  1  0  0  0  0
 14 17  1  0  0  0  0
 17 18  1  0  0  0  0
 17 19  1  0  0  0  0
 17 20  1  0  0  0  0
 20 21  1  0  0  0  0
 20 22  1  0  0  0  0
 20 23  1  0  0  0  0
M  END
> <VM2 Rank>
53

> <Conf_Id>
519

> <Probability>
0.04

> <Sum Probability>
99.54

> <Delta G>
3.454

> <G>
41.371

> <E>
13.518

> <-TS>
27.853

> <U+W>
-5.261

> <U>
50.301

> <W>
-55.562

> <W(PB)>
-57.696

> <W(SA)>
2.134

> <Valence>
4.724

> <Coulomb>
45.004

> <VdW>
0.574

> <VdW6>
-6.145

> <VdW12>
6.719

> <Bond>
0.198

> <Angle>
1.201

> <Pdih>
3.325

> <Idih>
0.000

> <Tether>
0.000

$$$$
VeraChem MOL file


 23 22  0  0  0  0  0  0  0  0999 V2000     
   19.0032   18.0593   25.0903 N   0  3  0  0  0  0  0  0  0  0  0  0
   18.5830   17.7636   24.2052 H   0  0  0  0  0  0  0  0  0  0  0  0
   18.2632   18.0321   25.8001 H   0  0  0  0  0  0  0  0  0  0  0  0
   19.6919   17.3463   25.3513 H   0  0  0  0  0  0  0  0  0  0  0  0
   19.6317   19.4357   24.9867 C   0  0  0  0  0  0  0  0  0  0  0  0
   20.0448   19.6711   25.9714 H   0  0  0  0  0  0  0  0  0  0  0  0
   18.8456   20.1630   24.7669 H   0  0  0  0  0  0  0  0  0  0  0  0
   20.7546   19.5427   23.9338 C   0  0  0  0  0  0  0  0  0  0  0  0
   21.4049   20.3786   24.2240 H   0  0  0  0  0  0  0  0  0  0  0  0
   21.3868   18.6454   23.9647 H   0  0  0  0  0  0  0  0  0  0  0  0
   20.2616   19.8064   22.4877 C   0  0  0  0  0  0  0  0  0  0  0  0
   21.1461   19.9767   21.8611 H   0  0  0  0  0  0  0  0  0  0  0  0
   19.6845   20.7410   22.4635 H   0  0  0  0  0  0  0  0  0  0  0  0
   19.4128   18.6604   21.8817 C   0  0  0  0  0  0  0  0  0  0  0  0
   19.9521   17.7073   21.9706 H   0  0  0  0  0  0  0  0  0  0  0  0
   18.4842   18.5563   22.4555 H   0  0  0  0  0  0  0  0  0  0  0  0
   19.0244   18.8973   20.4018 C   0  0  0  0  0  0  0  0  0  0  0  0
   18.5016   19.8589   20.3029 H   0  0  0  0  0  0  0  0  0  0  0  0
   18.3039   18.1242   20.1001 H   0  0  0  0  0  0  0  0  0  0  0  0
   20.2276   18.8551   19.4320 C   0  0  0  0  0  0  0  0  0  0  0  0
   19.8842   18.9258   18.3918 H   0  0  0  0  0  0  0  0  0  0  0  0
   20.7869   17.9164   19.5369 H   0  0  0  0  0  0  0  0  0  0  0  0
   20.9187   19.6888   19.6064 H   0  0  0  0  0  0  0  0  0  0  0  0
  1  2  1  0  0  0  0
  1  3  1  0  0  0  0
  1  4  1  0  0  0  0
  1  5  1  0  0  0  0
  5  6  1  0  0  0  0
  5  7  1  0  0  0  0
  5  8  1  0  0  0  0
  8  9  1  0  0  0  0
  8 10  1  0  0  0  0
  8 11  1  0  0  0  0
 11 12  1  0  0  0  0
 11 13  1  0  0  0  0
 11 14  1  0  0  0  0
 14 15  1  0  0  0  0
 14 16  1  0  0  0  0
 14 17  1  0  0  0  0
 17 18  1  0  0  0  0
 17 19  1  0  0  0  0
 17 20  1  0  0  0  0
 20 21  1  0  0  0  0
 20 22  1  0  0  0  0
 20 23  1  0  0  0  0
M  END
> <VM2 Rank>
54

> <Conf_Id>
362

> <Probability>
0.03

> <Sum Probability>
99.58

> <Delta G>
3.521

> <G>
41.437

> <E>
13.750

> <-TS>
27.686

> <U+W>
-5.029

> <U>
50.916

> <W>
-55.945

> <W(PB)>
-58.029

> <W(SA)>
2.084

> <Valence>
3.987

> <Coulomb>
46.335

> <VdW>
0.594

> <VdW6>
-6.627

> <VdW12>
7.221

> <Bond>
0.215

> <Angle>
1.275

> <Pdih>
2.498

> <Idih>
0.000

> <Tether>
0.000

$$$$
VeraChem MOL file


 23 22  0  0  0  0  0  0  0  0999 V2000     
   20.7892   18.8021   25.1717 N   0  3  0  0  0  0  0  0  0  0  0  0
   20.7901   17.8032   25.4016 H   0  0  0  0  0  0  0  0  0  0  0  0
   21.2731   19.2840   25.9371 H   0  0  0  0  0  0  0  0  0  0  0  0
   21.3622   18.9192   24.3318 H   0  0  0  0  0  0  0  0  0  0  0  0
   19.3817   19.3318   24.9752 C   0  0  0  0  0  0  0  0  0  0  0  0
   19.4359   20.4085   24.7935 H   0  0  0  0  0  0  0  0  0  0  0  0
   18.8488   19.1740   25.9168 H   0  0  0  0  0  0  0  0  0  0  0  0
   18.5993   18.6462   23.8356 C   0  0  0  0  0  0  0  0  0  0  0  0
   18.7884   17.5646   23.8464 H   0  0  0  0  0  0  0  0  0  0  0  0
   17.5285   18.7662   24.0475 H   0  0  0  0  0  0  0  0  0  0  0  0
   18.8708   19.2278   22.4243 C   0  0  0  0  0  0  0  0  0  0  0  0
   18.6158   20.2965   22.4146 H   0  0  0  0  0  0  0  0  0  0  0  0
   18.1780   18.7416   21.7258 H   0  0  0  0  0  0  0  0  0  0  0  0
   20.3250   19.0400   21.9233 C   0  0  0  0  0  0  0  0  0  0  0  0
   21.0059   19.6057   22.5705 H   0  0  0  0  0  0  0  0  0  0  0  0
   20.6145   17.9830   22.0010 H   0  0  0  0  0  0  0  0  0  0  0  0
   20.5447   19.5297   20.4711 C   0  0  0  0  0  0  0  0  0  0  0  0
   21.6213   19.5042   20.2514 H   0  0  0  0  0  0  0  0  0  0  0  0
   20.2386   20.5815   20.3820 H   0  0  0  0  0  0  0  0  0  0  0  0
   19.8053   18.6793   19.4128 C   0  0  0  0  0  0  0  0  0  0  0  0
   18.7164   18.7727   19.5060 H   0  0  0  0  0  0  0  0  0  0  0  0
   20.0691   17.6177   19.5044 H   0  0  0  0  0  0  0  0  0  0  0  0
   20.0772   19.0058   18.4006 H   0  0  0  0  0  0  0  0  0  0  0  0
  1  2  1  0  0  0  0
  1  3  1  0  0  0  0
  1  4  1  0  0  0  0
  1  5  1  0  0  0  0
  5  6  1  0  0  0  0
  5  7  1  0  0  0  0
  5  8  1  0  0  0  0
  8  9  1  0  0  0  0
  8 10  1  0  0  0  0
  8 11  1  0  0  0  0
 11 12  1  0  0  0  0
 11 13  1  0  0  0  0
 11 14  1  0  0  0  0
 14 15  1  0  0  0  0
 14 16  1  0  0  0  0
 14 17  1  0  0  0  0
 17 18  1  0  0  0  0
 17 19  1  0  0  0  0
 17 20  1  0  0  0  0
 20 21  1  0  0  0  0
 20 22  1  0  0  0  0
 20 23  1  0  0  0  0
M  END
> <VM2 Rank>
55

> <Conf_Id>
171

> <Probability>
0.03

> <Sum Probability>
99.61

> <Delta G>
3.521

> <G>
41.438

> <E>
13.751

> <-TS>
27.687

> <U+W>
-5.029

> <U>
50.916

> <W>
-55.945

> <W(PB)>
-58.003

> <W(SA)>
2.058

> <Valence>
3.987

> <Coulomb>
46.335

> <VdW>
0.594

> <VdW6>
-6.628

> <VdW12>
7.222

> <Bond>
0.215

> <Angle>
1.274

> <Pdih>
2.498

> <Idih>
0.000

> <Tether>
0.000

$$$$
VeraChem MOL file


 23 22  0  0  0  0  0  0  0  0999 V2000     
   20.2007   18.0336   25.4168 N   0  3  0  0  0  0  0  0  0  0  0  0
   21.0247   17.4584   25.6218 H   0  0  0  0  0  0  0  0  0  0  0  0
   19.3882   17.4090   25.4383 H   0  0  0  0  0  0  0  0  0  0  0  0
   20.0957   18.6914   26.1959 H   0  0  0  0  0  0  0  0  0  0  0  0
   20.3293   18.7485   24.0871 C   0  0  0  0  0  0  0  0  0  0  0  0
   20.4729   17.9913   23.3143 H   0  0  0  0  0  0  0  0  0  0  0  0
   21.2272   19.3710   24.1256 H   0  0  0  0  0  0  0  0  0  0  0  0
   19.1075   19.6263   23.7542 C   0  0  0  0  0  0  0  0  0  0  0  0
   18.1923   19.0196   23.7521 H   0  0  0  0  0  0  0  0  0  0  0  0
   18.9887   20.3630   24.5599 H   0  0  0  0  0  0  0  0  0  0  0  0
   19.2452   20.3858   22.4102 C   0  0  0  0  0  0  0  0  0  0  0  0
   20.2743   20.7465   22.2801 H   0  0  0  0  0  0  0  0  0  0  0  0
   18.6255   21.2911   22.4708 H   0  0  0  0  0  0  0  0  0  0  0  0
   18.7795   19.5920   21.1592 C   0  0  0  0  0  0  0  0  0  0  0  0
   17.7199   19.3280   21.2804 H   0  0  0  0  0  0  0  0  0  0  0  0
   18.8201   20.2611   20.2887 H   0  0  0  0  0  0  0  0  0  0  0  0
   19.5767   18.3062   20.8275 C   0  0  0  0  0  0  0  0  0  0  0  0
   19.1358   17.8468   19.9318 H   0  0  0  0  0  0  0  0  0  0  0  0
   19.4547   17.5655   21.6277 H   0  0  0  0  0  0  0  0  0  0  0  0
   21.0770   18.5646   20.5589 C   0  0  0  0  0  0  0  0  0  0  0  0
   21.2110   19.2939   19.7496 H   0  0  0  0  0  0  0  0  0  0  0  0
   21.5795   17.6358   20.2594 H   0  0  0  0  0  0  0  0  0  0  0  0
   21.5901   18.9459   21.4497 H   0  0  0  0  0  0  0  0  0  0  0  0
  1  2  1  0  0  0  0
  1  3  1  0  0  0  0
  1  4  1  0  0  0  0
  1  5  1  0  0  0  0
  5  6  1  0  0  0  0
  5  7  1  0  0  0  0
  5  8  1  0  0  0  0
  8  9  1  0  0  0  0
  8 10  1  0  0  0  0
  8 11  1  0  0  0  0
 11 12  1  0  0  0  0
 11 13  1  0  0  0  0
 11 14  1  0  0  0  0
 14 15  1  0  0  0  0
 14 16  1  0  0  0  0
 14 17  1  0  0  0  0
 17 18  1  0  0  0  0
 17 19  1  0  0  0  0
 17 20  1  0  0  0  0
 20 21  1  0  0  0  0
 20 22  1  0  0  0  0
 20 23  1  0  0  0  0
M  END
> <VM2 Rank>
56

> <Conf_Id>
688

> <Probability>
0.03

> <Sum Probability>
99.64

> <Delta G>
3.567

> <G>
41.483

> <E>
13.154

> <-TS>
28.330

> <U+W>
-5.626

> <U>
50.461

> <W>
-56.086

> <W(PB)>
-58.153

> <W(SA)>
2.066

> <Valence>
4.630

> <Coulomb>
45.564

> <VdW>
0.266

> <VdW6>
-7.363

> <VdW12>
7.629

> <Bond>
0.225

> <Angle>
1.702

> <Pdih>
2.703

> <Idih>
0.000

> <Tether>
0.000

$$$$
VeraChem MOL file


 23 22  0  0  0  0  0  0  0  0999 V2000     
   19.9416   17.9258   25.4050 N   0  3  0  0  0  0  0  0  0  0  0  0
   20.9524   18.0599   25.5097 H   0  0  0  0  0  0  0  0  0  0  0  0
   19.7546   16.9300   25.5639 H   0  0  0  0  0  0  0  0  0  0  0  0
   19.4890   18.4391   26.1682 H   0  0  0  0  0  0  0  0  0  0  0  0
   19.4484   18.3820   24.0470 C   0  0  0  0  0  0  0  0  0  0  0  0
   18.3744   18.1841   23.9955 H   0  0  0  0  0  0  0  0  0  0  0  0
   19.9437   17.7711   23.2902 H   0  0  0  0  0  0  0  0  0  0  0  0
   19.7102   19.8770   23.7817 C   0  0  0  0  0  0  0  0  0  0  0  0
   19.2094   20.4548   24.5699 H   0  0  0  0  0  0  0  0  0  0  0  0
   20.7822   20.0972   23.8702 H   0  0  0  0  0  0  0  0  0  0  0  0
   19.1800   20.3587   22.4072 C   0  0  0  0  0  0  0  0  0  0  0  0
   18.9694   21.4342   22.4864 H   0  0  0  0  0  0  0  0  0  0  0  0
   18.2125   19.8886   22.1861 H   0  0  0  0  0  0  0  0  0  0  0  0
   20.1660   20.1688   21.2225 C   0  0  0  0  0  0  0  0  0  0  0  0
   19.7314   20.6402   20.3302 H   0  0  0  0  0  0  0  0  0  0  0  0
   21.0874   20.7288   21.4340 H   0  0  0  0  0  0  0  0  0  0  0  0
   20.5425   18.7080   20.8715 C   0  0  0  0  0  0  0  0  0  0  0  0
   21.0906   18.2459   21.7022 H   0  0  0  0  0  0  0  0  0  0  0  0
   21.2467   18.7249   20.0280 H   0  0  0  0  0  0  0  0  0  0  0  0
   19.3273   17.8367   20.4792 C   0  0  0  0  0  0  0  0  0  0  0  0
   18.7796   18.2826   19.6389 H   0  0  0  0  0  0  0  0  0  0  0  0
   18.6281   17.7136   21.3148 H   0  0  0  0  0  0  0  0  0  0  0  0
   19.6554   16.8354   20.1716 H   0  0  0  0  0  0  0  0  0  0  0  0
  1  2  1  0  0  0  0
  1  3  1  0  0  0  0
  1  4  1  0  0  0  0
  1  5  1  0  0  0  0
  5  6  1  0  0  0  0
  5  7  1  0  0  0  0
  5  8  1  0  0  0  0
  8  9  1  0  0  0  0
  8 10  1  0  0  0  0
  8 11  1  0  0  0  0
 11 12  1  0  0  0  0
 11 13  1  0  0  0  0
 11 14  1  0  0  0  0
 14 15  1  0  0  0  0
 14 16  1  0  0  0  0
 14 17  1  0  0  0  0
 17 18  1  0  0  0  0
 17 19  1  0  0  0  0
 17 20  1  0  0  0  0
 20 21  1  0  0  0  0
 20 22  1  0  0  0  0
 20 23  1  0  0  0  0
M  END
> <VM2 Rank>
57

> <Conf_Id>
133

> <Probability>
0.03

> <Sum Probability>
99.67

> <Delta G>
3.585

> <G>
41.501

> <E>
13.171

> <-TS>
28.330

> <U+W>
-5.608

> <U>
50.461

> <W>
-56.068

> <W(PB)>
-58.143

> <W(SA)>
2.075

> <Valence>
4.630

> <Coulomb>
45.564

> <VdW>
0.266

> <VdW6>
-7.363

> <VdW12>
7.629

> <Bond>
0.225

> <Angle>
1.702

> <Pdih>
2.703

> <Idih>
0.000

> <Tether>
0.000

$$$$
VeraChem MOL file


 23 22  0  0  0  0  0  0  0  0999 V2000     
   18.9349   18.5708   25.5060 N   0  3  0  0  0  0  0  0  0  0  0  0
   18.3142   19.3436   25.2471 H   0  0  0  0  0  0  0  0  0  0  0  0
   18.9666   18.5422   26.5307 H   0  0  0  0  0  0  0  0  0  0  0  0
   18.4847   17.7035   25.1966 H   0  0  0  0  0  0  0  0  0  0  0  0
   20.3172   18.7342   24.9047 C   0  0  0  0  0  0  0  0  0  0  0  0
   20.9318   17.8995   25.2527 H   0  0  0  0  0  0  0  0  0  0  0  0
   20.7489   19.6604   25.2937 H   0  0  0  0  0  0  0  0  0  0  0  0
   20.3235   18.7664   23.3641 C   0  0  0  0  0  0  0  0  0  0  0  0
   21.3659   18.7988   23.0205 H   0  0  0  0  0  0  0  0  0  0  0  0
   19.8898   17.8321   22.9865 H   0  0  0  0  0  0  0  0  0  0  0  0
   19.5544   19.9814   22.7916 C   0  0  0  0  0  0  0  0  0  0  0  0
   19.8987   20.8923   23.3010 H   0  0  0  0  0  0  0  0  0  0  0  0
   18.4850   19.8861   23.0228 H   0  0  0  0  0  0  0  0  0  0  0  0
   19.7273   20.1852   21.2641 C   0  0  0  0  0  0  0  0  0  0  0  0
   19.1850   21.1008   20.9903 H   0  0  0  0  0  0  0  0  0  0  0  0
   20.7812   20.3841   21.0255 H   0  0  0  0  0  0  0  0  0  0  0  0
   19.1878   19.0259   20.3869 C   0  0  0  0  0  0  0  0  0  0  0  0
   18.7773   19.4511   19.4603 H   0  0  0  0  0  0  0  0  0  0  0  0
   18.3468   18.5268   20.8882 H   0  0  0  0  0  0  0  0  0  0  0  0
   20.2708   17.9930   19.9966 C   0  0  0  0  0  0  0  0  0  0  0  0
   20.7065   17.4999   20.8722 H   0  0  0  0  0  0  0  0  0  0  0  0
   21.0856   18.4718   19.4381 H   0  0  0  0  0  0  0  0  0  0  0  0
   19.8424   17.2120   19.3552 H   0  0  0  0  0  0  0  0  0  0  0  0
  1  2  1  0  0  0  0
  1  3  1  0  0  0  0
  1  4  1  0  0  0  0
  1  5  1  0  0  0  0
  5  6  1  0  0  0  0
  5  7  1  0  0  0  0
  5  8  1  0  0  0  0
  8  9  1  0  0  0  0
  8 10  1  0  0  0  0
  8 11  1  0  0  0  0
 11 12  1  0  0  0  0
 11 13  1  0  0  0  0
 11 14  1  0  0  0  0
 14 15  1  0  0  0  0
 14 16  1  0  0  0  0
 14 17  1  0  0  0  0
 17 18  1  0  0  0  0
 17 19  1  0  0  0  0
 17 20  1  0  0  0  0
 20 21  1  0  0  0  0
 20 22  1  0  0  0  0
 20 23  1  0  0  0  0
M  END
> <VM2 Rank>
58

> <Conf_Id>
762

> <Probability>
0.03

> <Sum Probability>
99.69

> <Delta G>
3.639

> <G>
41.555

> <E>
13.601

> <-TS>
27.954

> <U+W>
-5.178

> <U>
50.700

> <W>
-55.878

> <W(PB)>
-57.963

> <W(SA)>
2.085

> <Valence>
4.818

> <Coulomb>
45.214

> <VdW>
0.668

> <VdW6>
-6.660

> <VdW12>
7.328

> <Bond>
0.218

> <Angle>
1.218

> <Pdih>
3.382

> <Idih>
0.000

> <Tether>
0.000

$$$$
VeraChem MOL file


 23 22  0  0  0  0  0  0  0  0999 V2000     
   19.6558   19.2720   25.7989 N   0  3  0  0  0  0  0  0  0  0  0  0
   20.5342   18.8253   26.0808 H   0  0  0  0  0  0  0  0  0  0  0  0
   19.0751   19.3472   26.6409 H   0  0  0  0  0  0  0  0  0  0  0  0
   19.8821   20.2270   25.5052 H   0  0  0  0  0  0  0  0  0  0  0  0
   18.9560   18.4961   24.7000 C   0  0  0  0  0  0  0  0  0  0  0  0
   18.0202   19.0103   24.4646 H   0  0  0  0  0  0  0  0  0  0  0  0
   18.7105   17.5074   25.0973 H   0  0  0  0  0  0  0  0  0  0  0  0
   19.7965   18.3369   23.4182 C   0  0  0  0  0  0  0  0  0  0  0  0
   20.7371   17.8248   23.6607 H   0  0  0  0  0  0  0  0  0  0  0  0
   19.2546   17.6752   22.7332 H   0  0  0  0  0  0  0  0  0  0  0  0
   20.0975   19.6924   22.7293 C   0  0  0  0  0  0  0  0  0  0  0  0
   20.7080   20.3013   23.4094 H   0  0  0  0  0  0  0  0  0  0  0  0
   19.1673   20.2548   22.5687 H   0  0  0  0  0  0  0  0  0  0  0  0
   20.8669   19.5447   21.3906 C   0  0  0  0  0  0  0  0  0  0  0  0
   21.5642   20.3893   21.3015 H   0  0  0  0  0  0  0  0  0  0  0  0
   21.4954   18.6436   21.4089 H   0  0  0  0  0  0  0  0  0  0  0  0
   19.9717   19.5448   20.1250 C   0  0  0  0  0  0  0  0  0  0  0  0
   20.6209   19.5099   19.2389 H   0  0  0  0  0  0  0  0  0  0  0  0
   19.4229   20.4949   20.0621 H   0  0  0  0  0  0  0  0  0  0  0  0
   18.9716   18.3702   20.0520 C   0  0  0  0  0  0  0  0  0  0  0  0
   18.4606   18.3616   19.0806 H   0  0  0  0  0  0  0  0  0  0  0  0
   18.1998   18.4550   20.8269 H   0  0  0  0  0  0  0  0  0  0  0  0
   19.4831   17.4063   20.1706 H   0  0  0  0  0  0  0  0  0  0  0  0
  1  2  1  0  0  0  0
  1  3  1  0  0  0  0
  1  4  1  0  0  0  0
  1  5  1  0  0  0  0
  5  6  1  0  0  0  0
  5  7  1  0  0  0  0
  5  8  1  0  0  0  0
  8  9  1  0  0  0  0
  8 10  1  0  0  0  0
  8 11  1  0  0  0  0
 11 12  1  0  0  0  0
 11 13  1  0  0  0  0
 11 14  1  0  0  0  0
 14 15  1  0  0  0  0
 14 16  1  0  0  0  0
 14 17  1  0  0  0  0
 17 18  1  0  0  0  0
 17 19  1  0  0  0  0
 17 20  1  0  0  0  0
 20 21  1  0  0  0  0
 20 22  1  0  0  0  0
 20 23  1  0  0  0  0
M  END
> <VM2 Rank>
59

> <Conf_Id>
172

> <Probability>
0.03

> <Sum Probability>
99.72

> <Delta G>
3.654

> <G>
41.570

> <E>
13.584

> <-TS>
27.986

> <U+W>
-5.195

> <U>
50.625

> <W>
-55.821

> <W(PB)>
-57.894

> <W(SA)>
2.073

> <Valence>
4.837

> <Coulomb>
45.097

> <VdW>
0.692

> <VdW6>
-6.655

> <VdW12>
7.347

> <Bond>
0.223

> <Angle>
1.167

> <Pdih>
3.447

> <Idih>
0.000

> <Tether>
0.000

$$$$
VeraChem MOL file


 23 22  0  0  0  0  0  0  0  0999 V2000     
   19.4177   19.1730   25.7880 N   0  3  0  0  0  0  0  0  0  0  0  0
   19.0952   18.2270   26.0153 H   0  0  0  0  0  0  0  0  0  0  0  0
   18.6056   19.6963   25.4470 H   0  0  0  0  0  0  0  0  0  0  0  0
   19.7069   19.6100   26.6697 H   0  0  0  0  0  0  0  0  0  0  0  0
   20.5435   19.1562   24.7724 C   0  0  0  0  0  0  0  0  0  0  0  0
   21.3848   18.6195   25.2192 H   0  0  0  0  0  0  0  0  0  0  0  0
   20.8548   20.1890   24.5937 H   0  0  0  0  0  0  0  0  0  0  0  0
   20.1654   18.4903   23.4351 C   0  0  0  0  0  0  0  0  0  0  0  0
   21.0674   18.4289   22.8158 H   0  0  0  0  0  0  0  0  0  0  0  0
   19.8487   17.4553   23.6203 H   0  0  0  0  0  0  0  0  0  0  0  0
   19.0481   19.2560   22.6815 C   0  0  0  0  0  0  0  0  0  0  0  0
   19.3156   20.3164   22.5754 H   0  0  0  0  0  0  0  0  0  0  0  0
   18.1357   19.2316   23.2922 H   0  0  0  0  0  0  0  0  0  0  0  0
   18.7163   18.6503   21.2925 C   0  0  0  0  0  0  0  0  0  0  0  0
   18.9114   17.5690   21.2911 H   0  0  0  0  0  0  0  0  0  0  0  0
   17.6358   18.7556   21.1224 H   0  0  0  0  0  0  0  0  0  0  0  0
   19.4429   19.3249   20.1009 C   0  0  0  0  0  0  0  0  0  0  0  0
   19.1606   20.3858   20.0502 H   0  0  0  0  0  0  0  0  0  0  0  0
   19.0805   18.8694   19.1687 H   0  0  0  0  0  0  0  0  0  0  0  0
   20.9821   19.2063   20.1437 C   0  0  0  0  0  0  0  0  0  0  0  0
   21.4038   19.7875   20.9729 H   0  0  0  0  0  0  0  0  0  0  0  0
   21.4223   19.5933   19.2156 H   0  0  0  0  0  0  0  0  0  0  0  0
   21.2961   18.1603   20.2532 H   0  0  0  0  0  0  0  0  0  0  0  0
  1  2  1  0  0  0  0
  1  3  1  0  0  0  0
  1  4  1  0  0  0  0
  1  5  1  0  0  0  0
  5  6  1  0  0  0  0
  5  7  1  0  0  0  0
  5  8  1  0  0  0  0
  8  9  1  0  0  0  0
  8 10  1  0  0  0  0
  8 11  1  0  0  0  0
 11 12  1  0  0  0  0
 11 13  1  0  0  0  0
 11 14  1  0  0  0  0
 14 15  1  0  0  0  0
 14 16  1  0  0  0  0
 14 17  1  0  0  0  0
 17 18  1  0  0  0  0
 17 19  1  0  0  0  0
 17 20  1  0  0  0  0
 20 21  1  0  0  0  0
 20 22  1  0  0  0  0
 20 23  1  0  0  0  0
M  END
> <VM2 Rank>
60

> <Conf_Id>
285

> <Probability>
0.02

> <Sum Probability>
99.74

> <Delta G>
3.698

> <G>
41.615

> <E>
13.628

> <-TS>
27.986

> <U+W>
-5.151

> <U>
50.625

> <W>
-55.776

> <W(PB)>
-57.840

> <W(SA)>
2.064

> <Valence>
4.837

> <Coulomb>
45.097

> <VdW>
0.692

> <VdW6>
-6.655

> <VdW12>
7.347

> <Bond>
0.223

> <Angle>
1.167

> <Pdih>
3.447

> <Idih>
0.000

> <Tether>
0.000

$$$$
VeraChem MOL file


 23 22  0  0  0  0  0  0  0  0999 V2000     
   20.0185   18.7464   25.7758 N   0  3  0  0  0  0  0  0  0  0  0  0
   20.5176   17.8526   25.7254 H   0  0  0  0  0  0  0  0  0  0  0  0
   19.6823   18.8469   26.7396 H   0  0  0  0  0  0  0  0  0  0  0  0
   20.7084   19.4877   25.6211 H   0  0  0  0  0  0  0  0  0  0  0  0
   18.8825   18.8152   24.7737 C   0  0  0  0  0  0  0  0  0  0  0  0
   18.3793   19.7782   24.8953 H   0  0  0  0  0  0  0  0  0  0  0  0
   18.1706   18.0249   25.0272 H   0  0  0  0  0  0  0  0  0  0  0  0
   19.3316   18.6455   23.3092 C   0  0  0  0  0  0  0  0  0  0  0  0
   19.8608   17.6902   23.1956 H   0  0  0  0  0  0  0  0  0  0  0  0
   18.4301   18.5883   22.6869 H   0  0  0  0  0  0  0  0  0  0  0  0
   20.2231   19.8117   22.8175 C   0  0  0  0  0  0  0  0  0  0  0  0
   21.0724   19.9359   23.5020 H   0  0  0  0  0  0  0  0  0  0  0  0
   19.6533   20.7500   22.8644 H   0  0  0  0  0  0  0  0  0  0  0  0
   20.7889   19.6244   21.3858 C   0  0  0  0  0  0  0  0  0  0  0  0
   21.4346   20.4871   21.1707 H   0  0  0  0  0  0  0  0  0  0  0  0
   21.4488   18.7466   21.3524 H   0  0  0  0  0  0  0  0  0  0  0  0
   19.7184   19.5335   20.2675 C   0  0  0  0  0  0  0  0  0  0  0  0
   20.1078   20.0323   19.3689 H   0  0  0  0  0  0  0  0  0  0  0  0
   18.8165   20.0916   20.5551 H   0  0  0  0  0  0  0  0  0  0  0  0
   19.3530   18.0803   19.8845 C   0  0  0  0  0  0  0  0  0  0  0  0
   20.2359   17.5368   19.5236 H   0  0  0  0  0  0  0  0  0  0  0  0
   18.6058   18.0715   19.0805 H   0  0  0  0  0  0  0  0  0  0  0  0
   18.9369   17.5222   20.7304 H   0  0  0  0  0  0  0  0  0  0  0  0
  1  2  1  0  0  0  0
  1  3  1  0  0  0  0
  1  4  1  0  0  0  0
  1  5  1  0  0  0  0
  5  6  1  0  0  0  0
  5  7  1  0  0  0  0
  5  8  1  0  0  0  0
  8  9  1  0  0  0  0
  8 10  1  0  0  0  0
  8 11  1  0  0  0  0
 11 12  1  0  0  0  0
 11 13  1  0  0  0  0
 11 14  1  0  0  0  0
 14 15  1  0  0  0  0
 14 16  1  0  0  0  0
 14 17  1  0  0  0  0
 17 18  1  0  0  0  0
 17 19  1  0  0  0  0
 17 20  1  0  0  0  0
 20 21  1  0  0  0  0
 20 22  1  0  0  0  0
 20 23  1  0  0  0  0
M  END
> <VM2 Rank>
61

> <Conf_Id>
529

> <Probability>
0.02

> <Sum Probability>
99.77

> <Delta G>
3.713

> <G>
41.629

> <E>
13.680

> <-TS>
27.949

> <U+W>
-5.099

> <U>
50.701

> <W>
-55.800

> <W(PB)>
-57.867

> <W(SA)>
2.067

> <Valence>
4.881

> <Coulomb>
45.095

> <VdW>
0.726

> <VdW6>
-6.620

> <VdW12>
7.345

> <Bond>
0.222

> <Angle>
1.260

> <Pdih>
3.398

> <Idih>
0.000

> <Tether>
0.000

$$$$
VeraChem MOL file


 23 22  0  0  0  0  0  0  0  0999 V2000     
   20.8279   18.8084   25.2416 N   0  3  0  0  0  0  0  0  0  0  0  0
   21.3635   18.0170   24.8711 H   0  0  0  0  0  0  0  0  0  0  0  0
   21.0149   18.8503   26.2492 H   0  0  0  0  0  0  0  0  0  0  0  0
   21.2198   19.6601   24.8288 H   0  0  0  0  0  0  0  0  0  0  0  0
   19.3461   18.6722   24.9501 C   0  0  0  0  0  0  0  0  0  0  0  0
   18.8324   19.5295   25.3934 H   0  0  0  0  0  0  0  0  0  0  0  0
   18.9918   17.7668   25.4504 H   0  0  0  0  0  0  0  0  0  0  0  0
   19.0146   18.5887   23.4477 C   0  0  0  0  0  0  0  0  0  0  0  0
   19.5346   17.7288   23.0108 H   0  0  0  0  0  0  0  0  0  0  0  0
   17.9407   18.3856   23.3425 H   0  0  0  0  0  0  0  0  0  0  0  0
   19.3621   19.8943   22.6876 C   0  0  0  0  0  0  0  0  0  0  0  0
   20.4281   20.1356   22.7918 H   0  0  0  0  0  0  0  0  0  0  0  0
   18.8154   20.7204   23.1634 H   0  0  0  0  0  0  0  0  0  0  0  0
   18.9782   19.8545   21.1852 C   0  0  0  0  0  0  0  0  0  0  0  0
   18.1040   19.2071   21.0311 H   0  0  0  0  0  0  0  0  0  0  0  0
   18.6554   20.8620   20.8881 H   0  0  0  0  0  0  0  0  0  0  0  0
   20.1266   19.4342   20.2324 C   0  0  0  0  0  0  0  0  0  0  0  0
   20.9554   20.1511   20.3154 H   0  0  0  0  0  0  0  0  0  0  0  0
   19.7643   19.5076   19.1974 H   0  0  0  0  0  0  0  0  0  0  0  0
   20.6605   18.0047   20.4693 C   0  0  0  0  0  0  0  0  0  0  0  0
   21.1904   17.9309   21.4267 H   0  0  0  0  0  0  0  0  0  0  0  0
   21.3708   17.7253   19.6804 H   0  0  0  0  0  0  0  0  0  0  0  0
   19.8447   17.2703   20.4619 H   0  0  0  0  0  0  0  0  0  0  0  0
  1  2  1  0  0  0  0
  1  3  1  0  0  0  0
  1  4  1  0  0  0  0
  1  5  1  0  0  0  0
  5  6  1  0  0  0  0
  5  7  1  0  0  0  0
  5  8  1  0  0  0  0
  8  9  1  0  0  0  0
  8 10  1  0  0  0  0
  8 11  1  0  0  0  0
 11 12  1  0  0  0  0
 11 13  1  0  0  0  0
 11 14  1  0  0  0  0
 14 15  1  0  0  0  0
 14 16  1  0  0  0  0
 14 17  1  0  0  0  0
 17 18  1  0  0  0  0
 17 19  1  0  0  0  0
 17 20  1  0  0  0  0
 20 21  1  0  0  0  0
 20 22  1  0  0  0  0
 20 23  1  0  0  0  0
M  END
> <VM2 Rank>
62

> <Conf_Id>
861

> <Probability>
0.02

> <Sum Probability>
99.79

> <Delta G>
3.762

> <G>
41.678

> <E>
13.724

> <-TS>
27.954

> <U+W>
-5.055

> <U>
50.975

> <W>
-56.030

> <W(PB)>
-58.077

> <W(SA)>
2.047

> <Valence>
4.792

> <Coulomb>
45.573

> <VdW>
0.610

> <VdW6>
-6.731

> <VdW12>
7.341

> <Bond>
0.224

> <Angle>
1.226

> <Pdih>
3.342

> <Idih>
0.000

> <Tether>
0.000

$$$$
VeraChem MOL file


 23 22  0  0  0  0  0  0  0  0999 V2000     
   18.9663   18.0342   25.1570 N   0  3  0  0  0  0  0  0  0  0  0  0
   18.1202   18.3710   24.6879 H   0  0  0  0  0  0  0  0  0  0  0  0
   18.7273   17.8990   26.1452 H   0  0  0  0  0  0  0  0  0  0  0  0
   19.1791   17.1086   24.7718 H   0  0  0  0  0  0  0  0  0  0  0  0
   20.1256   18.9964   24.9857 C   0  0  0  0  0  0  0  0  0  0  0  0
   20.9765   18.5923   25.5408 H   0  0  0  0  0  0  0  0  0  0  0  0
   19.8450   19.9507   25.4395 H   0  0  0  0  0  0  0  0  0  0  0  0
   20.5338   19.2205   23.5169 C   0  0  0  0  0  0  0  0  0  0  0  0
   21.4397   19.8407   23.5018 H   0  0  0  0  0  0  0  0  0  0  0  0
   20.8113   18.2597   23.0690 H   0  0  0  0  0  0  0  0  0  0  0  0
   19.4245   19.9202   22.6905 C   0  0  0  0  0  0  0  0  0  0  0  0
   19.1866   20.8747   23.1804 H   0  0  0  0  0  0  0  0  0  0  0  0
   18.4972   19.3324   22.7038 H   0  0  0  0  0  0  0  0  0  0  0  0
   19.8388   20.2125   21.2245 C   0  0  0  0  0  0  0  0  0  0  0  0
   19.3751   21.1613   20.9210 H   0  0  0  0  0  0  0  0  0  0  0  0
   20.9227   20.3796   21.1596 H   0  0  0  0  0  0  0  0  0  0  0  0
   19.4041   19.1338   20.1994 C   0  0  0  0  0  0  0  0  0  0  0  0
   19.6868   19.4754   19.1939 H   0  0  0  0  0  0  0  0  0  0  0  0
   18.3083   19.0500   20.1947 H   0  0  0  0  0  0  0  0  0  0  0  0
   20.0230   17.7395   20.4401 C   0  0  0  0  0  0  0  0  0  0  0  0
   21.1161   17.7992   20.5198 H   0  0  0  0  0  0  0  0  0  0  0  0
   19.7834   17.0651   19.6079 H   0  0  0  0  0  0  0  0  0  0  0  0
   19.6290   17.2814   21.3554 H   0  0  0  0  0  0  0  0  0  0  0  0
  1  2  1  0  0  0  0
  1  3  1  0  0  0  0
  1  4  1  0  0  0  0
  1  5  1  0  0  0  0
  5  6  1  0  0  0  0
  5  7  1  0  0  0  0
  5  8  1  0  0  0  0
  8  9  1  0  0  0  0
  8 10  1  0  0  0  0
  8 11  1  0  0  0  0
 11 12  1  0  0  0  0
 11 13  1  0  0  0  0
 11 14  1  0  0  0  0
 14 15  1  0  0  0  0
 14 16  1  0  0  0  0
 14 17  1  0  0  0  0
 17 18  1  0  0  0  0
 17 19  1  0  0  0  0
 17 20  1  0  0  0  0
 20 21  1  0  0  0  0
 20 22  1  0  0  0  0
 20 23  1  0  0  0  0
M  END
> <VM2 Rank>
63

> <Conf_Id>
757

> <Probability>
0.02

> <Sum Probability>
99.81

> <Delta G>
3.797

> <G>
41.713

> <E>
13.759

> <-TS>
27.953

> <U+W>
-5.020

> <U>
50.975

> <W>
-55.995

> <W(PB)>
-58.046

> <W(SA)>
2.051

> <Valence>
4.792

> <Coulomb>
45.573

> <VdW>
0.610

> <VdW6>
-6.731

> <VdW12>
7.341

> <Bond>
0.224

> <Angle>
1.226

> <Pdih>
3.342

> <Idih>
0.000

> <Tether>
0.000

$$$$
VeraChem MOL file


 23 22  0  0  0  0  0  0  0  0999 V2000     
   19.5368   18.5464   25.7540 N   0  3  0  0  0  0  0  0  0  0  0  0
   18.5397   18.5862   25.5224 H   0  0  0  0  0  0  0  0  0  0  0  0
   19.6270   18.8243   26.7371 H   0  0  0  0  0  0  0  0  0  0  0  0
   19.8229   17.5640   25.6940 H   0  0  0  0  0  0  0  0  0  0  0  0
   20.3635   19.4312   24.8411 C   0  0  0  0  0  0  0  0  0  0  0  0
   21.4030   19.3692   25.1745 H   0  0  0  0  0  0  0  0  0  0  0  0
   20.0258   20.4630   24.9701 H   0  0  0  0  0  0  0  0  0  0  0  0
   20.2819   19.0406   23.3525 C   0  0  0  0  0  0  0  0  0  0  0  0
   21.0035   19.6584   22.8041 H   0  0  0  0  0  0  0  0  0  0  0  0
   20.5954   17.9955   23.2291 H   0  0  0  0  0  0  0  0  0  0  0  0
   18.8685   19.2481   22.7558 C   0  0  0  0  0  0  0  0  0  0  0  0
   18.6006   20.3120   22.8166 H   0  0  0  0  0  0  0  0  0  0  0  0
   18.1313   18.7123   23.3680 H   0  0  0  0  0  0  0  0  0  0  0  0
   18.7151   18.7617   21.2912 C   0  0  0  0  0  0  0  0  0  0  0  0
   18.8759   17.6762   21.2351 H   0  0  0  0  0  0  0  0  0  0  0  0
   17.6677   18.9201   20.9991 H   0  0  0  0  0  0  0  0  0  0  0  0
   19.6175   19.4916   20.2630 C   0  0  0  0  0  0  0  0  0  0  0  0
   19.8332   20.5146   20.6016 H   0  0  0  0  0  0  0  0  0  0  0  0
   19.0608   19.5970   19.3213 H   0  0  0  0  0  0  0  0  0  0  0  0
   20.9326   18.7375   19.9563 C   0  0  0  0  0  0  0  0  0  0  0  0
   21.5257   19.2864   19.2135 H   0  0  0  0  0  0  0  0  0  0  0  0
   20.7255   17.7407   19.5456 H   0  0  0  0  0  0  0  0  0  0  0  0
   21.5542   18.6109   20.8495 H   0  0  0  0  0  0  0  0  0  0  0  0
  1  2  1  0  0  0  0
  1  3  1  0  0  0  0
  1  4  1  0  0  0  0
  1  5  1  0  0  0  0
  5  6  1  0  0  0  0
  5  7  1  0  0  0  0
  5  8  1  0  0  0  0
  8  9  1  0  0  0  0
  8 10  1  0  0  0  0
  8 11  1  0  0  0  0
 11 12  1  0  0  0  0
 11 13  1  0  0  0  0
 11 14  1  0  0  0  0
 14 15  1  0  0  0  0
 14 16  1  0  0  0  0
 14 17  1  0  0  0  0
 17 18  1  0  0  0  0
 17 19  1  0  0  0  0
 17 20  1  0  0  0  0
 20 21  1  0  0  0  0
 20 22  1  0  0  0  0
 20 23  1  0  0  0  0
M  END
> <VM2 Rank>
64

> <Conf_Id>
445

> <Probability>
0.02

> <Sum Probability>
99.83

> <Delta G>
3.803

> <G>
41.719

> <E>
13.770

> <-TS>
27.949

> <U+W>
-5.009

> <U>
50.701

> <W>
-55.710

> <W(PB)>
-57.768

> <W(SA)>
2.058

> <Valence>
4.881

> <Coulomb>
45.094

> <VdW>
0.726

> <VdW6>
-6.620

> <VdW12>
7.345

> <Bond>
0.222

> <Angle>
1.260

> <Pdih>
3.398

> <Idih>
0.000

> <Tether>
0.000

$$$$
VeraChem MOL file


 23 22  0  0  0  0  0  0  0  0999 V2000     
   20.9898   18.9134   24.7564 N   0  3  0  0  0  0  0  0  0  0  0  0
   21.7211   18.2384   25.0042 H   0  0  0  0  0  0  0  0  0  0  0  0
   20.8635   19.5279   25.5670 H   0  0  0  0  0  0  0  0  0  0  0  0
   21.3552   19.4902   23.9930 H   0  0  0  0  0  0  0  0  0  0  0  0
   19.6960   18.2254   24.3671 C   0  0  0  0  0  0  0  0  0  0  0  0
   19.3781   17.6137   25.2158 H   0  0  0  0  0  0  0  0  0  0  0  0
   19.8992   17.5548   23.5293 H   0  0  0  0  0  0  0  0  0  0  0  0
   18.5644   19.2019   23.9931 C   0  0  0  0  0  0  0  0  0  0  0  0
   17.6580   18.6218   23.7747 H   0  0  0  0  0  0  0  0  0  0  0  0
   18.3254   19.8134   24.8732 H   0  0  0  0  0  0  0  0  0  0  0  0
   18.8694   20.1422   22.7963 C   0  0  0  0  0  0  0  0  0  0  0  0
   19.7363   20.7801   23.0141 H   0  0  0  0  0  0  0  0  0  0  0  0
   18.0187   20.8312   22.7005 H   0  0  0  0  0  0  0  0  0  0  0  0
   19.0530   19.4264   21.4322 C   0  0  0  0  0  0  0  0  0  0  0  0
   18.3715   18.5675   21.3626 H   0  0  0  0  0  0  0  0  0  0  0  0
   18.7444   20.1217   20.6392 H   0  0  0  0  0  0  0  0  0  0  0  0
   20.5068   18.9831   21.1385 C   0  0  0  0  0  0  0  0  0  0  0  0
   20.8472   18.2491   21.8773 H   0  0  0  0  0  0  0  0  0  0  0  0
   21.1804   19.8479   21.2156 H   0  0  0  0  0  0  0  0  0  0  0  0
   20.6366   18.3645   19.7304 C   0  0  0  0  0  0  0  0  0  0  0  0
   20.3483   19.0849   18.9537 H   0  0  0  0  0  0  0  0  0  0  0  0
   19.9972   17.4779   19.6286 H   0  0  0  0  0  0  0  0  0  0  0  0
   21.6723   18.0569   19.5360 H   0  0  0  0  0  0  0  0  0  0  0  0
  1  2  1  0  0  0  0
  1  3  1  0  0  0  0
  1  4  1  0  0  0  0
  1  5  1  0  0  0  0
  5  6  1  0  0  0  0
  5  7  1  0  0  0  0
  5  8  1  0  0  0  0
  8  9  1  0  0  0  0
  8 10  1  0  0  0  0
  8 11  1  0  0  0  0
 11 12  1  0  0  0  0
 11 13  1  0  0  0  0
 11 14  1  0  0  0  0
 14 15  1  0  0  0  0
 14 16  1  0  0  0  0
 14 17  1  0  0  0  0
 17 18  1  0  0  0  0
 17 19  1  0  0  0  0
 17 20  1  0  0  0  0
 20 21  1  0  0  0  0
 20 22  1  0  0  0  0
 20 23  1  0  0  0  0
M  END
> <VM2 Rank>
65

> <Conf_Id>
942

> <Probability>
0.02

> <Sum Probability>
99.85

> <Delta G>
3.860

> <G>
41.776

> <E>
13.756

> <-TS>
28.020

> <U+W>
-5.023

> <U>
51.112

> <W>
-56.135

> <W(PB)>
-58.229

> <W(SA)>
2.094

> <Valence>
4.455

> <Coulomb>
46.320

> <VdW>
0.337

> <VdW6>
-7.022

> <VdW12>
7.359

> <Bond>
0.222

> <Angle>
1.454

> <Pdih>
2.779

> <Idih>
0.000

> <Tether>
0.000

$$$$
VeraChem MOL file


 23 22  0  0  0  0  0  0  0  0999 V2000     
   20.3026   18.1966   25.6537 N   0  3  0  0  0  0  0  0  0  0  0  0
   20.9552   18.5633   26.3549 H   0  0  0  0  0  0  0  0  0  0  0  0
   20.7188   17.3379   25.2795 H   0  0  0  0  0  0  0  0  0  0  0  0
   19.4498   17.9256   26.1539 H   0  0  0  0  0  0  0  0  0  0  0  0
   20.0203   19.2101   24.5633 C   0  0  0  0  0  0  0  0  0  0  0  0
   20.9730   19.4744   24.0977 H   0  0  0  0  0  0  0  0  0  0  0  0
   19.6077   20.1063   25.0346 H   0  0  0  0  0  0  0  0  0  0  0  0
   19.0405   18.6895   23.4944 C   0  0  0  0  0  0  0  0  0  0  0  0
   19.4504   17.7842   23.0333 H   0  0  0  0  0  0  0  0  0  0  0  0
   18.1062   18.3902   23.9875 H   0  0  0  0  0  0  0  0  0  0  0  0
   18.7135   19.7536   22.4161 C   0  0  0  0  0  0  0  0  0  0  0  0
   18.3316   20.6487   22.9266 H   0  0  0  0  0  0  0  0  0  0  0  0
   17.8872   19.3990   21.7847 H   0  0  0  0  0  0  0  0  0  0  0  0
   19.9137   20.1670   21.5206 C   0  0  0  0  0  0  0  0  0  0  0  0
   19.7925   21.2276   21.2603 H   0  0  0  0  0  0  0  0  0  0  0  0
   20.8576   20.1087   22.0774 H   0  0  0  0  0  0  0  0  0  0  0  0
   20.0360   19.3764   20.1929 C   0  0  0  0  0  0  0  0  0  0  0  0
   20.8631   19.8040   19.6091 H   0  0  0  0  0  0  0  0  0  0  0  0
   19.1298   19.5253   19.5893 H   0  0  0  0  0  0  0  0  0  0  0  0
   20.2894   17.8638   20.3729 C   0  0  0  0  0  0  0  0  0  0  0  0
   21.1433   17.6808   21.0380 H   0  0  0  0  0  0  0  0  0  0  0  0
   20.5105   17.3946   19.4055 H   0  0  0  0  0  0  0  0  0  0  0  0
   19.4079   17.3589   20.7862 H   0  0  0  0  0  0  0  0  0  0  0  0
  1  2  1  0  0  0  0
  1  3  1  0  0  0  0
  1  4  1  0  0  0  0
  1  5  1  0  0  0  0
  5  6  1  0  0  0  0
  5  7  1  0  0  0  0
  5  8  1  0  0  0  0
  8  9  1  0  0  0  0
  8 10  1  0  0  0  0
  8 11  1  0  0  0  0
 11 12  1  0  0  0  0
 11 13  1  0  0  0  0
 11 14  1  0  0  0  0
 14 15  1  0  0  0  0
 14 16  1  0  0  0  0
 14 17  1  0  0  0  0
 17 18  1  0  0  0  0
 17 19  1  0  0  0  0
 17 20  1  0  0  0  0
 20 21  1  0  0  0  0
 20 22  1  0  0  0  0
 20 23  1  0  0  0  0
M  END
> <VM2 Rank>
66

> <Conf_Id>
506

> <Probability>
0.02

> <Sum Probability>
99.87

> <Delta G>
3.868

> <G>
41.785

> <E>
13.890

> <-TS>
27.895

> <U+W>
-4.889

> <U>
51.036

> <W>
-55.925

> <W(PB)>
-57.987

> <W(SA)>
2.061

> <Valence>
5.117

> <Coulomb>
45.322

> <VdW>
0.598

> <VdW6>
-6.707

> <VdW12>
7.305

> <Bond>
0.233

> <Angle>
1.410

> <Pdih>
3.474

> <Idih>
0.000

> <Tether>
0.000

$$$$
VeraChem MOL file


 23 22  0  0  0  0  0  0  0  0999 V2000     
   19.7361   17.9612   25.6281 N   0  3  0  0  0  0  0  0  0  0  0  0
   18.9641   17.7355   26.2645 H   0  0  0  0  0  0  0  0  0  0  0  0
   20.4881   18.3573   26.2013 H   0  0  0  0  0  0  0  0  0  0  0  0
   20.0807   17.0726   25.2507 H   0  0  0  0  0  0  0  0  0  0  0  0
   19.3014   18.9113   24.5307 C   0  0  0  0  0  0  0  0  0  0  0  0
   18.9204   19.8206   25.0034 H   0  0  0  0  0  0  0  0  0  0  0  0
   18.4815   18.4385   23.9845 H   0  0  0  0  0  0  0  0  0  0  0  0
   20.4407   19.2717   23.5582 C   0  0  0  0  0  0  0  0  0  0  0  0
   21.2705   19.7059   24.1315 H   0  0  0  0  0  0  0  0  0  0  0  0
   20.8293   18.3575   23.0961 H   0  0  0  0  0  0  0  0  0  0  0  0
   20.0006   20.2888   22.4747 C   0  0  0  0  0  0  0  0  0  0  0  0
   20.8807   20.6438   21.9210 H   0  0  0  0  0  0  0  0  0  0  0  0
   19.5956   21.1743   22.9842 H   0  0  0  0  0  0  0  0  0  0  0  0
   18.9348   19.7597   21.4761 C   0  0  0  0  0  0  0  0  0  0  0  0
   18.2704   19.0322   21.9595 H   0  0  0  0  0  0  0  0  0  0  0  0
   18.2890   20.6021   21.1920 H   0  0  0  0  0  0  0  0  0  0  0  0
   19.5115   19.1583   20.1689 C   0  0  0  0  0  0  0  0  0  0  0  0
   20.0889   19.9246   19.6329 H   0  0  0  0  0  0  0  0  0  0  0  0
   18.6734   18.8933   19.5093 H   0  0  0  0  0  0  0  0  0  0  0  0
   20.3908   17.9061   20.3772 C   0  0  0  0  0  0  0  0  0  0  0  0
   20.6429   17.4500   19.4111 H   0  0  0  0  0  0  0  0  0  0  0  0
   19.8695   17.1508   20.9794 H   0  0  0  0  0  0  0  0  0  0  0  0
   21.3349   18.1607   20.8738 H   0  0  0  0  0  0  0  0  0  0  0  0
  1  2  1  0  0  0  0
  1  3  1  0  0  0  0
  1  4  1  0  0  0  0
  1  5  1  0  0  0  0
  5  6  1  0  0  0  0
  5  7  1  0  0  0  0
  5  8  1  0  0  0  0
  8  9  1  0  0  0  0
  8 10  1  0  0  0  0
  8 11  1  0  0  0  0
 11 12  1  0  0  0  0
 11 13  1  0  0  0  0
 11 14  1  0  0  0  0
 14 15  1  0  0  0  0
 14 16  1  0  0  0  0
 14 17  1  0  0  0  0
 17 18  1  0  0  0  0
 17 19  1  0  0  0  0
 17 20  1  0  0  0  0
 20 21  1  0  0  0  0
 20 22  1  0  0  0  0
 20 23  1  0  0  0  0
M  END
> <VM2 Rank>
67

> <Conf_Id>
174

> <Probability>
0.02

> <Sum Probability>
99.89

> <Delta G>
3.878

> <G>
41.794

> <E>
13.899

> <-TS>
27.895

> <U+W>
-4.880

> <U>
51.036

> <W>
-55.916

> <W(PB)>
-57.975

> <W(SA)>
2.059

> <Valence>
5.117

> <Coulomb>
45.321

> <VdW>
0.598

> <VdW6>
-6.707

> <VdW12>
7.304

> <Bond>
0.233

> <Angle>
1.409

> <Pdih>
3.475

> <Idih>
0.000

> <Tether>
0.000

$$$$
VeraChem MOL file


 23 22  0  0  0  0  0  0  0  0999 V2000     
   18.8157   18.0094   24.6575 N   0  3  0  0  0  0  0  0  0  0  0  0
   18.4066   18.5064   25.4552 H   0  0  0  0  0  0  0  0  0  0  0  0
   18.7606   17.0075   24.8695 H   0  0  0  0  0  0  0  0  0  0  0  0
   18.2100   18.1824   23.8498 H   0  0  0  0  0  0  0  0  0  0  0  0
   20.2413   18.4521   24.3919 C   0  0  0  0  0  0  0  0  0  0  0  0
   20.6381   17.8620   23.5630 H   0  0  0  0  0  0  0  0  0  0  0  0
   20.8316   18.2181   25.2820 H   0  0  0  0  0  0  0  0  0  0  0  0
   20.3738   19.9542   24.0754 C   0  0  0  0  0  0  0  0  0  0  0  0
   20.0406   20.5265   24.9514 H   0  0  0  0  0  0  0  0  0  0  0  0
   21.4377   20.1934   23.9468 H   0  0  0  0  0  0  0  0  0  0  0  0
   19.5868   20.4405   22.8290 C   0  0  0  0  0  0  0  0  0  0  0  0
   19.7039   21.5319   22.7773 H   0  0  0  0  0  0  0  0  0  0  0  0
   18.5097   20.2700   22.9582 H   0  0  0  0  0  0  0  0  0  0  0  0
   20.0703   19.8495   21.4785 C   0  0  0  0  0  0  0  0  0  0  0  0
   19.8562   20.5841   20.6898 H   0  0  0  0  0  0  0  0  0  0  0  0
   21.1622   19.7282   21.4896 H   0  0  0  0  0  0  0  0  0  0  0  0
   19.3862   18.5171   21.0875 C   0  0  0  0  0  0  0  0  0  0  0  0
   18.2951   18.6478   21.0843 H   0  0  0  0  0  0  0  0  0  0  0  0
   19.6097   17.7344   21.8208 H   0  0  0  0  0  0  0  0  0  0  0  0
   19.8420   18.0342   19.6941 C   0  0  0  0  0  0  0  0  0  0  0  0
   20.9264   17.8645   19.6708 H   0  0  0  0  0  0  0  0  0  0  0  0
   19.5946   18.7716   18.9194 H   0  0  0  0  0  0  0  0  0  0  0  0
   19.3477   17.0902   19.4301 H   0  0  0  0  0  0  0  0  0  0  0  0
  1  2  1  0  0  0  0
  1  3  1  0  0  0  0
  1  4  1  0  0  0  0
  1  5  1  0  0  0  0
  5  6  1  0  0  0  0
  5  7  1  0  0  0  0
  5  8  1  0  0  0  0
  8  9  1  0  0  0  0
  8 10  1  0  0  0  0
  8 11  1  0  0  0  0
 11 12  1  0  0  0  0
 11 13  1  0  0  0  0
 11 14  1  0  0  0  0
 14 15  1  0  0  0  0
 14 16  1  0  0  0  0
 14 17  1  0  0  0  0
 17 18  1  0  0  0  0
 17 19  1  0  0  0  0
 17 20  1  0  0  0  0
 20 21  1  0  0  0  0
 20 22  1  0  0  0  0
 20 23  1  0  0  0  0
M  END
> <VM2 Rank>
68

> <Conf_Id>
318

> <Probability>
0.02

> <Sum Probability>
99.90

> <Delta G>
3.925

> <G>
41.842

> <E>
13.822

> <-TS>
28.020

> <U+W>
-4.957

> <U>
51.112

> <W>
-56.069

> <W(PB)>
-58.128

> <W(SA)>
2.058

> <Valence>
4.455

> <Coulomb>
46.320

> <VdW>
0.337

> <VdW6>
-7.022

> <VdW12>
7.359

> <Bond>
0.222

> <Angle>
1.454

> <Pdih>
2.779

> <Idih>
0.000

> <Tether>
0.000

$$$$
VeraChem MOL file


 23 22  0  0  0  0  0  0  0  0999 V2000     
   20.0559   17.7785   25.2513 N   0  3  0  0  0  0  0  0  0  0  0  0
   20.3398   18.3534   26.0511 H   0  0  0  0  0  0  0  0  0  0  0  0
   20.9024   17.3309   24.8861 H   0  0  0  0  0  0  0  0  0  0  0  0
   19.4579   17.0311   25.6197 H   0  0  0  0  0  0  0  0  0  0  0  0
   19.3457   18.5968   24.1922 C   0  0  0  0  0  0  0  0  0  0  0  0
   18.4431   19.0202   24.6410 H   0  0  0  0  0  0  0  0  0  0  0  0
   19.0445   17.9191   23.3893 H   0  0  0  0  0  0  0  0  0  0  0  0
   20.2177   19.7289   23.6175 C   0  0  0  0  0  0  0  0  0  0  0  0
   20.5329   20.3876   24.4376 H   0  0  0  0  0  0  0  0  0  0  0  0
   21.1389   19.3172   23.1876 H   0  0  0  0  0  0  0  0  0  0  0  0
   19.4737   20.5763   22.5581 C   0  0  0  0  0  0  0  0  0  0  0  0
   20.1444   21.3712   22.2038 H   0  0  0  0  0  0  0  0  0  0  0  0
   18.6351   21.0902   23.0481 H   0  0  0  0  0  0  0  0  0  0  0  0
   18.9231   19.7950   21.3342 C   0  0  0  0  0  0  0  0  0  0  0  0
   18.1750   19.0553   21.6493 H   0  0  0  0  0  0  0  0  0  0  0  0
   18.3735   20.5144   20.7115 H   0  0  0  0  0  0  0  0  0  0  0  0
   20.0026   19.1265   20.4436 C   0  0  0  0  0  0  0  0  0  0  0  0
   20.9293   19.7169   20.4583 H   0  0  0  0  0  0  0  0  0  0  0  0
   19.6509   19.1440   19.4025 H   0  0  0  0  0  0  0  0  0  0  0  0
   20.2974   17.6550   20.8171 C   0  0  0  0  0  0  0  0  0  0  0  0
   20.7321   17.5610   21.8174 H   0  0  0  0  0  0  0  0  0  0  0  0
   21.0106   17.2165   20.1072 H   0  0  0  0  0  0  0  0  0  0  0  0
   19.3822   17.0497   20.7845 H   0  0  0  0  0  0  0  0  0  0  0  0
  1  2  1  0  0  0  0
  1  3  1  0  0  0  0
  1  4  1  0  0  0  0
  1  5  1  0  0  0  0
  5  6  1  0  0  0  0
  5  7  1  0  0  0  0
  5  8  1  0  0  0  0
  8  9  1  0  0  0  0
  8 10  1  0  0  0  0
  8 11  1  0  0  0  0
 11 12  1  0  0  0  0
 11 13  1  0  0  0  0
 11 14  1  0  0  0  0
 14 15  1  0  0  0  0
 14 16  1  0  0  0  0
 14 17  1  0  0  0  0
 17 18  1  0  0  0  0
 17 19  1  0  0  0  0
 17 20  1  0  0  0  0
 20 21  1  0  0  0  0
 20 22  1  0  0  0  0
 20 23  1  0  0  0  0
M  END
> <VM2 Rank>
69

> <Conf_Id>
943

> <Probability>
0.02

> <Sum Probability>
99.92

> <Delta G>
3.976

> <G>
41.892

> <E>
13.664

> <-TS>
28.228

> <U+W>
-5.115

> <U>
51.053

> <W>
-56.168

> <W(PB)>
-58.205

> <W(SA)>
2.037

> <Valence>
5.021

> <Coulomb>
45.787

> <VdW>
0.245

> <VdW6>
-7.353

> <VdW12>
7.597

> <Bond>
0.229

> <Angle>
1.630

> <Pdih>
3.162

> <Idih>
0.000

> <Tether>
0.000

$$$$
VeraChem MOL file


 23 22  0  0  0  0  0  0  0  0999 V2000     
   20.2366   17.8537   25.2595 N   0  3  0  0  0  0  0  0  0  0  0  0
   19.5684   18.0326   26.0160 H   0  0  0  0  0  0  0  0  0  0  0  0
   21.1570   17.7377   25.6969 H   0  0  0  0  0  0  0  0  0  0  0  0
   19.9874   16.9503   24.8444 H   0  0  0  0  0  0  0  0  0  0  0  0
   20.2380   18.9679   24.2328 C   0  0  0  0  0  0  0  0  0  0  0  0
   20.9914   18.7287   23.4779 H   0  0  0  0  0  0  0  0  0  0  0  0
   20.5372   19.8911   24.7362 H   0  0  0  0  0  0  0  0  0  0  0  0
   18.8689   19.1679   23.5560 C   0  0  0  0  0  0  0  0  0  0  0  0
   18.5469   18.2392   23.0696 H   0  0  0  0  0  0  0  0  0  0  0  0
   18.1178   19.3831   24.3276 H   0  0  0  0  0  0  0  0  0  0  0  0
   18.8735   20.3267   22.5307 C   0  0  0  0  0  0  0  0  0  0  0  0
   19.0603   21.2671   23.0674 H   0  0  0  0  0  0  0  0  0  0  0  0
   17.8674   20.4241   22.1001 H   0  0  0  0  0  0  0  0  0  0  0  0
   19.9080   20.2047   21.3791 C   0  0  0  0  0  0  0  0  0  0  0  0
   19.8327   21.1214   20.7779 H   0  0  0  0  0  0  0  0  0  0  0  0
   20.9324   20.2023   21.7749 H   0  0  0  0  0  0  0  0  0  0  0  0
   19.6926   18.9975   20.4295 C   0  0  0  0  0  0  0  0  0  0  0  0
   20.0079   19.2924   19.4188 H   0  0  0  0  0  0  0  0  0  0  0  0
   18.6230   18.7575   20.3532 H   0  0  0  0  0  0  0  0  0  0  0  0
   20.4985   17.7386   20.8264 C   0  0  0  0  0  0  0  0  0  0  0  0
   21.5719   17.9605   20.8847 H   0  0  0  0  0  0  0  0  0  0  0  0
   20.3634   16.9472   20.0778 H   0  0  0  0  0  0  0  0  0  0  0  0
   20.1821   17.3322   21.7924 H   0  0  0  0  0  0  0  0  0  0  0  0
  1  2  1  0  0  0  0
  1  3  1  0  0  0  0
  1  4  1  0  0  0  0
  1  5  1  0  0  0  0
  5  6  1  0  0  0  0
  5  7  1  0  0  0  0
  5  8  1  0  0  0  0
  8  9  1  0  0  0  0
  8 10  1  0  0  0  0
  8 11  1  0  0  0  0
 11 12  1  0  0  0  0
 11 13  1  0  0  0  0
 11 14  1  0  0  0  0
 14 15  1  0  0  0  0
 14 16  1  0  0  0  0
 14 17  1  0  0  0  0
 17 18  1  0  0  0  0
 17 19  1  0  0  0  0
 17 20  1  0  0  0  0
 20 21  1  0  0  0  0
 20 22  1  0  0  0  0
 20 23  1  0  0  0  0
M  END
> <VM2 Rank>
70

> <Conf_Id>
760

> <Probability>
0.01

> <Sum Probability>
99.93

> <Delta G>
4.047

> <G>
41.964

> <E>
13.735

> <-TS>
28.229

> <U+W>
-5.044

> <U>
51.053

> <W>
-56.097

> <W(PB)>
-58.132

> <W(SA)>
2.034

> <Valence>
5.021

> <Coulomb>
45.788

> <VdW>
0.245

> <VdW6>
-7.353

> <VdW12>
7.598

> <Bond>
0.229

> <Angle>
1.631

> <Pdih>
3.161

> <Idih>
0.000

> <Tether>
0.000

$$$$
VeraChem MOL file


 23 22  0  0  0  0  0  0  0  0999 V2000     
   19.1250   18.9160   25.4647 N   0  3  0  0  0  0  0  0  0  0  0  0
   18.5745   18.2924   26.0647 H   0  0  0  0  0  0  0  0  0  0  0  0
   18.4720   19.5874   25.0497 H   0  0  0  0  0  0  0  0  0  0  0  0
   19.7539   19.4436   26.0785 H   0  0  0  0  0  0  0  0  0  0  0  0
   19.8873   18.1480   24.4029 C   0  0  0  0  0  0  0  0  0  0  0  0
   19.1643   17.5877   23.8052 H   0  0  0  0  0  0  0  0  0  0  0  0
   20.5324   17.4278   24.9134 H   0  0  0  0  0  0  0  0  0  0  0  0
   20.7478   19.0413   23.4853 C   0  0  0  0  0  0  0  0  0  0  0  0
   21.5040   19.5503   24.0974 H   0  0  0  0  0  0  0  0  0  0  0  0
   21.3061   18.3970   22.7978 H   0  0  0  0  0  0  0  0  0  0  0  0
   19.9421   20.1066   22.6924 C   0  0  0  0  0  0  0  0  0  0  0  0
   20.6356   20.7408   22.1234 H   0  0  0  0  0  0  0  0  0  0  0  0
   19.4588   20.7812   23.4115 H   0  0  0  0  0  0  0  0  0  0  0  0
   18.8544   19.5416   21.7374 C   0  0  0  0  0  0  0  0  0  0  0  0
   18.4041   18.6292   22.1479 H   0  0  0  0  0  0  0  0  0  0  0  0
   18.0360   20.2732   21.6894 H   0  0  0  0  0  0  0  0  0  0  0  0
   19.3280   19.2875   20.2834 C   0  0  0  0  0  0  0  0  0  0  0  0
   19.6770   20.2294   19.8378 H   0  0  0  0  0  0  0  0  0  0  0  0
   18.4599   18.9735   19.6871 H   0  0  0  0  0  0  0  0  0  0  0  0
   20.4314   18.2160   20.1478 C   0  0  0  0  0  0  0  0  0  0  0  0
   20.1553   17.2922   20.6725 H   0  0  0  0  0  0  0  0  0  0  0  0
   21.3867   18.5761   20.5479 H   0  0  0  0  0  0  0  0  0  0  0  0
   20.5949   17.9665   19.0914 H   0  0  0  0  0  0  0  0  0  0  0  0
  1  2  1  0  0  0  0
  1  3  1  0  0  0  0
  1  4  1  0  0  0  0
  1  5  1  0  0  0  0
  5  6  1  0  0  0  0
  5  7  1  0  0  0  0
  5  8  1  0  0  0  0
  8  9  1  0  0  0  0
  8 10  1  0  0  0  0
  8 11  1  0  0  0  0
 11 12  1  0  0  0  0
 11 13  1  0  0  0  0
 11 14  1  0  0  0  0
 14 15  1  0  0  0  0
 14 16  1  0  0  0  0
 14 17  1  0  0  0  0
 17 18  1  0  0  0  0
 17 19  1  0  0  0  0
 17 20  1  0  0  0  0
 20 21  1  0  0  0  0
 20 22  1  0  0  0  0
 20 23  1  0  0  0  0
M  END
> <VM2 Rank>
71

> <Conf_Id>
546

> <Probability>
0.01

> <Sum Probability>
99.94

> <Delta G>
4.130

> <G>
42.047

> <E>
14.151

> <-TS>
27.895

> <U+W>
-4.628

> <U>
51.455

> <W>
-56.082

> <W(PB)>
-58.110

> <W(SA)>
2.028

> <Valence>
5.238

> <Coulomb>
45.552

> <VdW>
0.665

> <VdW6>
-7.395

> <VdW12>
8.059

> <Bond>
0.274

> <Angle>
1.687

> <Pdih>
3.277

> <Idih>
0.000

> <Tether>
0.000

$$$$
VeraChem MOL file


 23 22  0  0  0  0  0  0  0  0999 V2000     
   20.0702   19.3073   25.5069 N   0  3  0  0  0  0  0  0  0  0  0  0
   20.0879   20.2567   25.1222 H   0  0  0  0  0  0  0  0  0  0  0  0
   20.8517   19.2356   26.1671 H   0  0  0  0  0  0  0  0  0  0  0  0
   19.2076   19.2171   26.0531 H   0  0  0  0  0  0  0  0  0  0  0  0
   20.1574   18.2597   24.4145 C   0  0  0  0  0  0  0  0  0  0  0  0
   20.1724   17.2784   24.8965 H   0  0  0  0  0  0  0  0  0  0  0  0
   21.1080   18.3928   23.8924 H   0  0  0  0  0  0  0  0  0  0  0  0
   18.9916   18.3136   23.4053 C   0  0  0  0  0  0  0  0  0  0  0  0
   19.1065   17.4856   22.6976 H   0  0  0  0  0  0  0  0  0  0  0  0
   18.0528   18.1199   23.9408 H   0  0  0  0  0  0  0  0  0  0  0  0
   18.8675   19.6615   22.6436 C   0  0  0  0  0  0  0  0  0  0  0  0
   18.6751   20.4567   23.3761 H   0  0  0  0  0  0  0  0  0  0  0  0
   17.9757   19.6385   22.0024 H   0  0  0  0  0  0  0  0  0  0  0  0
   20.1059   20.0613   21.7946 C   0  0  0  0  0  0  0  0  0  0  0  0
   20.1681   21.1583   21.7862 H   0  0  0  0  0  0  0  0  0  0  0  0
   21.0354   19.7218   22.2683 H   0  0  0  0  0  0  0  0  0  0  0  0
   20.0656   19.5932   20.3174 C   0  0  0  0  0  0  0  0  0  0  0  0
   20.9443   20.0039   19.8006 H   0  0  0  0  0  0  0  0  0  0  0  0
   19.1891   20.0262   19.8155 H   0  0  0  0  0  0  0  0  0  0  0  0
   20.0578   18.0604   20.1317 C   0  0  0  0  0  0  0  0  0  0  0  0
   20.2019   17.8022   19.0746 H   0  0  0  0  0  0  0  0  0  0  0  0
   19.1003   17.6269   20.4441 H   0  0  0  0  0  0  0  0  0  0  0  0
   20.8637   17.5861   20.7064 H   0  0  0  0  0  0  0  0  0  0  0  0
  1  2  1  0  0  0  0
  1  3  1  0  0  0  0
  1  4  1  0  0  0  0
  1  5  1  0  0  0  0
  5  6  1  0  0  0  0
  5  7  1  0  0  0  0
  5  8  1  0  0  0  0
  8  9  1  0  0  0  0
  8 10  1  0  0  0  0
  8 11  1  0  0  0  0
 11 12  1  0  0  0  0
 11 13  1  0  0  0  0
 11 14  1  0  0  0  0
 14 15  1  0  0  0  0
 14 16  1  0  0  0  0
 14 17  1  0  0  0  0
 17 18  1  0  0  0  0
 17 19  1  0  0  0  0
 17 20  1  0  0  0  0
 20 21  1  0  0  0  0
 20 22  1  0  0  0  0
 20 23  1  0  0  0  0
M  END
> <VM2 Rank>
72

> <Conf_Id>
734

> <Probability>
0.01

> <Sum Probability>
99.95

> <Delta G>
4.173

> <G>
42.089

> <E>
14.196

> <-TS>
27.893

> <U+W>
-4.583

> <U>
51.456

> <W>
-56.039

> <W(PB)>
-58.075

> <W(SA)>
2.036

> <Valence>
5.238

> <Coulomb>
45.553

> <VdW>
0.665

> <VdW6>
-7.396

> <VdW12>
8.061

> <Bond>
0.274

> <Angle>
1.690

> <Pdih>
3.274

> <Idih>
0.000

> <Tether>
0.000

$$$$
VeraChem MOL file


 23 22  0  0  0  0  0  0  0  0999 V2000     
   20.3751   18.5203   25.2078 N   0  3  0  0  0  0  0  0  0  0  0  0
   20.8656   17.7112   25.6036 H   0  0  0  0  0  0  0  0  0  0  0  0
   19.8645   18.9661   25.9766 H   0  0  0  0  0  0  0  0  0  0  0  0
   21.0908   19.1831   24.8949 H   0  0  0  0  0  0  0  0  0  0  0  0
   19.4503   18.1205   24.0752 C   0  0  0  0  0  0  0  0  0  0  0  0
   18.7348   17.3940   24.4698 H   0  0  0  0  0  0  0  0  0  0  0  0
   20.0500   17.6249   23.3075 H   0  0  0  0  0  0  0  0  0  0  0  0
   18.6862   19.3069   23.4533 C   0  0  0  0  0  0  0  0  0  0  0  0
   17.9791   18.9311   22.7040 H   0  0  0  0  0  0  0  0  0  0  0  0
   18.0704   19.7806   24.2292 H   0  0  0  0  0  0  0  0  0  0  0  0
   19.6037   20.3778   22.8109 C   0  0  0  0  0  0  0  0  0  0  0  0
   20.1801   20.8732   23.6037 H   0  0  0  0  0  0  0  0  0  0  0  0
   18.9746   21.1643   22.3718 H   0  0  0  0  0  0  0  0  0  0  0  0
   20.5929   19.8608   21.7313 C   0  0  0  0  0  0  0  0  0  0  0  0
   21.2219   20.7118   21.4354 H   0  0  0  0  0  0  0  0  0  0  0  0
   21.2860   19.1235   22.1575 H   0  0  0  0  0  0  0  0  0  0  0  0
   19.9280   19.2983   20.4480 C   0  0  0  0  0  0  0  0  0  0  0  0
   20.5906   19.5076   19.5965 H   0  0  0  0  0  0  0  0  0  0  0  0
   18.9905   19.8317   20.2382 H   0  0  0  0  0  0  0  0  0  0  0  0
   19.6797   17.7724   20.4875 C   0  0  0  0  0  0  0  0  0  0  0  0
   19.2890   17.4245   19.5225 H   0  0  0  0  0  0  0  0  0  0  0  0
   18.9511   17.4914   21.2548 H   0  0  0  0  0  0  0  0  0  0  0  0
   20.6115   17.2266   20.6845 H   0  0  0  0  0  0  0  0  0  0  0  0
  1  2  1  0  0  0  0
  1  3  1  0  0  0  0
  1  4  1  0  0  0  0
  1  5  1  0  0  0  0
  5  6  1  0  0  0  0
  5  7  1  0  0  0  0
  5  8  1  0  0  0  0
  8  9  1  0  0  0  0
  8 10  1  0  0  0  0
  8 11  1  0  0  0  0
 11 12  1  0  0  0  0
 11 13  1  0  0  0  0
 11 14  1  0  0  0  0
 14 15  1  0  0  0  0
 14 16  1  0  0  0  0
 14 17  1  0  0  0  0
 17 18  1  0  0  0  0
 17 19  1  0  0  0  0
 17 20  1  0  0  0  0
 20 21  1  0  0  0  0
 20 22  1  0  0  0  0
 20 23  1  0  0  0  0
M  END
> <VM2 Rank>
73

> <Conf_Id>
574

> <Probability>
0.01

> <Sum Probability>
99.96

> <Delta G>
4.279

> <G>
42.195

> <E>
13.814

> <-TS>
28.381

> <U+W>
-4.966

> <U>
51.195

> <W>
-56.160

> <W(PB)>
-58.178

> <W(SA)>
2.018

> <Valence>
5.115

> <Coulomb>
45.778

> <VdW>
0.302

> <VdW6>
-7.950

> <VdW12>
8.252

> <Bond>
0.252

> <Angle>
1.730

> <Pdih>
3.133

> <Idih>
0.000

> <Tether>
0.000

$$$$
VeraChem MOL file


 23 22  0  0  0  0  0  0  0  0999 V2000     
   20.1345   17.6276   24.2543 N   0  3  0  0  0  0  0  0  0  0  0  0
   20.5896   17.6930   23.3392 H   0  0  0  0  0  0  0  0  0  0  0  0
   19.3078   17.0324   24.1408 H   0  0  0  0  0  0  0  0  0  0  0  0
   20.7765   17.1299   24.8806 H   0  0  0  0  0  0  0  0  0  0  0  0
   19.7693   18.9960   24.7956 C   0  0  0  0  0  0  0  0  0  0  0  0
   20.6915   19.5518   24.9854 H   0  0  0  0  0  0  0  0  0  0  0  0
   19.2667   18.8370   25.7535 H   0  0  0  0  0  0  0  0  0  0  0  0
   18.8465   19.8183   23.8719 C   0  0  0  0  0  0  0  0  0  0  0  0
   18.0464   19.1829   23.4713 H   0  0  0  0  0  0  0  0  0  0  0  0
   18.3417   20.5708   24.4921 H   0  0  0  0  0  0  0  0  0  0  0  0
   19.5848   20.5682   22.7305 C   0  0  0  0  0  0  0  0  0  0  0  0
   20.2991   21.2737   23.1772 H   0  0  0  0  0  0  0  0  0  0  0  0
   18.8552   21.1866   22.1896 H   0  0  0  0  0  0  0  0  0  0  0  0
   20.3402   19.6830   21.7066 C   0  0  0  0  0  0  0  0  0  0  0  0
   20.8246   20.3441   20.9745 H   0  0  0  0  0  0  0  0  0  0  0  0
   21.1582   19.1462   22.2023 H   0  0  0  0  0  0  0  0  0  0  0  0
   19.4251   18.6927   20.9477 C   0  0  0  0  0  0  0  0  0  0  0  0
   18.6239   19.2478   20.4399 H   0  0  0  0  0  0  0  0  0  0  0  0
   18.9344   18.0050   21.6478 H   0  0  0  0  0  0  0  0  0  0  0  0
   20.2156   17.8711   19.9075 C   0  0  0  0  0  0  0  0  0  0  0  0
   19.5514   17.1772   19.3760 H   0  0  0  0  0  0  0  0  0  0  0  0
   21.0061   17.2795   20.3871 H   0  0  0  0  0  0  0  0  0  0  0  0
   20.6842   18.5256   19.1610 H   0  0  0  0  0  0  0  0  0  0  0  0
  1  2  1  0  0  0  0
  1  3  1  0  0  0  0
  1  4  1  0  0  0  0
  1  5  1  0  0  0  0
  5  6  1  0  0  0  0
  5  7  1  0  0  0  0
  5  8  1  0  0  0  0
  8  9  1  0  0  0  0
  8 10  1  0  0  0  0
  8 11  1  0  0  0  0
 11 12  1  0  0  0  0
 11 13  1  0  0  0  0
 11 14  1  0  0  0  0
 14 15  1  0  0  0  0
 14 16  1  0  0  0  0
 14 17  1  0  0  0  0
 17 18  1  0  0  0  0
 17 19  1  0  0  0  0
 17 20  1  0  0  0  0
 20 21  1  0  0  0  0
 20 22  1  0  0  0  0
 20 23  1  0  0  0  0
M  END
> <VM2 Rank>
74

> <Conf_Id>
483

> <Probability>
0.01

> <Sum Probability>
99.97

> <Delta G>
4.444

> <G>
42.360

> <E>
14.084

> <-TS>
28.276

> <U+W>
-4.695

> <U>
50.876

> <W>
-55.571

> <W(PB)>
-57.630

> <W(SA)>
2.059

> <Valence>
3.812

> <Coulomb>
46.851

> <VdW>
0.213

> <VdW6>
-7.415

> <VdW12>
7.628

> <Bond>
0.215

> <Angle>
1.471

> <Pdih>
2.127

> <Idih>
0.000

> <Tether>
0.000

$$$$
VeraChem MOL file


 23 22  0  0  0  0  0  0  0  0999 V2000     
   20.3656   17.7237   24.2646 N   0  3  0  0  0  0  0  0  0  0  0  0
   20.2187   16.8978   24.8549 H   0  0  0  0  0  0  0  0  0  0  0  0
   21.3761   17.8928   24.2350 H   0  0  0  0  0  0  0  0  0  0  0  0
   20.0711   17.4772   23.3152 H   0  0  0  0  0  0  0  0  0  0  0  0
   19.6111   18.9301   24.7882 C   0  0  0  0  0  0  0  0  0  0  0  0
   20.0020   19.1427   25.7869 H   0  0  0  0  0  0  0  0  0  0  0  0
   18.5556   18.6631   24.8877 H   0  0  0  0  0  0  0  0  0  0  0  0
   19.7485   20.1935   23.9130 C   0  0  0  0  0  0  0  0  0  0  0  0
   19.5218   21.0616   24.5461 H   0  0  0  0  0  0  0  0  0  0  0  0
   20.7910   20.3246   23.5965 H   0  0  0  0  0  0  0  0  0  0  0  0
   18.7878   20.2368   22.6942 C   0  0  0  0  0  0  0  0  0  0  0  0
   18.9043   21.2071   22.1918 H   0  0  0  0  0  0  0  0  0  0  0  0
   17.7523   20.2145   23.0611 H   0  0  0  0  0  0  0  0  0  0  0  0
   18.9636   19.1106   21.6439 C   0  0  0  0  0  0  0  0  0  0  0  0
   18.7309   18.1367   22.0917 H   0  0  0  0  0  0  0  0  0  0  0  0
   18.2124   19.2577   20.8555 H   0  0  0  0  0  0  0  0  0  0  0  0
   20.3660   19.0841   20.9906 C   0  0  0  0  0  0  0  0  0  0  0  0
   21.1430   18.9239   21.7486 H   0  0  0  0  0  0  0  0  0  0  0  0
   20.5748   20.0593   20.5287 H   0  0  0  0  0  0  0  0  0  0  0  0
   20.4735   17.9782   19.9195 C   0  0  0  0  0  0  0  0  0  0  0  0
   20.3001   16.9857   20.3554 H   0  0  0  0  0  0  0  0  0  0  0  0
   21.4722   17.9759   19.4638 H   0  0  0  0  0  0  0  0  0  0  0  0
   19.7390   18.1321   19.1181 H   0  0  0  0  0  0  0  0  0  0  0  0
  1  2  1  0  0  0  0
  1  3  1  0  0  0  0
  1  4  1  0  0  0  0
  1  5  1  0  0  0  0
  5  6  1  0  0  0  0
  5  7  1  0  0  0  0
  5  8  1  0  0  0  0
  8  9  1  0  0  0  0
  8 10  1  0  0  0  0
  8 11  1  0  0  0  0
 11 12  1  0  0  0  0
 11 13  1  0  0  0  0
 11 14  1  0  0  0  0
 14 15  1  0  0  0  0
 14 16  1  0  0  0  0
 14 17  1  0  0  0  0
 17 18  1  0  0  0  0
 17 19  1  0  0  0  0
 17 20  1  0  0  0  0
 20 21  1  0  0  0  0
 20 22  1  0  0  0  0
 20 23  1  0  0  0  0
M  END
> <VM2 Rank>
75

> <Conf_Id>
102

> <Probability>
0.01

> <Sum Probability>
99.98

> <Delta G>
4.547

> <G>
42.463

> <E>
14.187

> <-TS>
28.276

> <U+W>
-4.592

> <U>
50.877

> <W>
-55.469

> <W(PB)>
-57.491

> <W(SA)>
2.022

> <Valence>
3.812

> <Coulomb>
46.852

> <VdW>
0.213

> <VdW6>
-7.416

> <VdW12>
7.629

> <Bond>
0.215

> <Angle>
1.470

> <Pdih>
2.127

> <Idih>
0.000

> <Tether>
0.000

$$$$
VeraChem MOL file


 23 22  0  0  0  0  0  0  0  0999 V2000     
   19.4991   17.6997   24.7626 N   0  3  0  0  0  0  0  0  0  0  0  0
   18.7837   16.9949   24.9706 H   0  0  0  0  0  0  0  0  0  0  0  0
   19.9788   17.9062   25.6446 H   0  0  0  0  0  0  0  0  0  0  0  0
   20.1847   17.2598   24.1420 H   0  0  0  0  0  0  0  0  0  0  0  0
   18.8974   18.9473   24.1453 C   0  0  0  0  0  0  0  0  0  0  0  0
   18.1656   19.3434   24.8545 H   0  0  0  0  0  0  0  0  0  0  0  0
   18.3650   18.6534   23.2389 H   0  0  0  0  0  0  0  0  0  0  0  0
   19.9371   20.0410   23.8248 C   0  0  0  0  0  0  0  0  0  0  0  0
   19.4170   20.9711   23.5601 H   0  0  0  0  0  0  0  0  0  0  0  0
   20.4960   20.2616   24.7440 H   0  0  0  0  0  0  0  0  0  0  0  0
   20.9401   19.6670   22.7006 C   0  0  0  0  0  0  0  0  0  0  0  0
   21.2418   18.6151   22.7787 H   0  0  0  0  0  0  0  0  0  0  0  0
   21.8600   20.2437   22.8687 H   0  0  0  0  0  0  0  0  0  0  0  0
   20.4540   19.9896   21.2615 C   0  0  0  0  0  0  0  0  0  0  0  0
   20.2581   21.0681   21.1867 H   0  0  0  0  0  0  0  0  0  0  0  0
   21.2779   19.7894   20.5626 H   0  0  0  0  0  0  0  0  0  0  0  0
   19.1992   19.2230   20.7750 C   0  0  0  0  0  0  0  0  0  0  0  0
   18.9568   19.5648   19.7591 H   0  0  0  0  0  0  0  0  0  0  0  0
   18.3293   19.4869   21.3896 H   0  0  0  0  0  0  0  0  0  0  0  0
   19.3891   17.6894   20.7442 C   0  0  0  0  0  0  0  0  0  0  0  0
   18.5007   17.2005   20.3240 H   0  0  0  0  0  0  0  0  0  0  0  0
   19.5481   17.2796   21.7480 H   0  0  0  0  0  0  0  0  0  0  0  0
   20.2498   17.4126   20.1218 H   0  0  0  0  0  0  0  0  0  0  0  0
  1  2  1  0  0  0  0
  1  3  1  0  0  0  0
  1  4  1  0  0  0  0
  1  5  1  0  0  0  0
  5  6  1  0  0  0  0
  5  7  1  0  0  0  0
  5  8  1  0  0  0  0
  8  9  1  0  0  0  0
  8 10  1  0  0  0  0
  8 11  1  0  0  0  0
 11 12  1  0  0  0  0
 11 13  1  0  0  0  0
 11 14  1  0  0  0  0
 14 15  1  0  0  0  0
 14 16  1  0  0  0  0
 14 17  1  0  0  0  0
 17 18  1  0  0  0  0
 17 19  1  0  0  0  0
 17 20  1  0  0  0  0
 20 21  1  0  0  0  0
 20 22  1  0  0  0  0
 20 23  1  0  0  0  0
M  END
> <VM2 Rank>
76

> <Conf_Id>
296

> <Probability>
0.01

> <Sum Probability>
99.98

> <Delta G>
4.550

> <G>
42.466

> <E>
13.890

> <-TS>
28.576

> <U+W>
-4.889

> <U>
51.403

> <W>
-56.291

> <W(PB)>
-58.317

> <W(SA)>
2.025

> <Valence>
4.890

> <Coulomb>
46.339

> <VdW>
0.173

> <VdW6>
-8.061

> <VdW12>
8.235

> <Bond>
0.255

> <Angle>
1.788

> <Pdih>
2.848

> <Idih>
0.000

> <Tether>
0.000

$$$$
VeraChem MOL file


 23 22  0  0  0  0  0  0  0  0999 V2000     
   20.7212   18.2082   24.8183 N   0  3  0  0  0  0  0  0  0  0  0  0
   21.7063   18.2109   25.1039 H   0  0  0  0  0  0  0  0  0  0  0  0
   20.5997   17.4325   24.1609 H   0  0  0  0  0  0  0  0  0  0  0  0
   20.1698   17.9858   25.6533 H   0  0  0  0  0  0  0  0  0  0  0  0
   20.3080   19.5342   24.2096 C   0  0  0  0  0  0  0  0  0  0  0  0
   20.9602   19.7332   23.3572 H   0  0  0  0  0  0  0  0  0  0  0  0
   20.4862   20.3090   24.9602 H   0  0  0  0  0  0  0  0  0  0  0  0
   18.8288   19.5799   23.7743 C   0  0  0  0  0  0  0  0  0  0  0  0
   18.2090   19.3102   24.6398 H   0  0  0  0  0  0  0  0  0  0  0  0
   18.5559   20.6128   23.5207 H   0  0  0  0  0  0  0  0  0  0  0  0
   18.4769   18.6421   22.5883 C   0  0  0  0  0  0  0  0  0  0  0  0
   17.4098   18.3921   22.6659 H   0  0  0  0  0  0  0  0  0  0  0  0
   19.0038   17.6839   22.6767 H   0  0  0  0  0  0  0  0  0  0  0  0
   18.7012   19.2602   21.1816 C   0  0  0  0  0  0  0  0  0  0  0  0
   18.3190   18.5581   20.4278 H   0  0  0  0  0  0  0  0  0  0  0  0
   18.0807   20.1621   21.0874 H   0  0  0  0  0  0  0  0  0  0  0  0
   20.1624   19.6238   20.8189 C   0  0  0  0  0  0  0  0  0  0  0  0
   20.5383   20.4061   21.4903 H   0  0  0  0  0  0  0  0  0  0  0  0
   20.1693   20.0693   19.8144 H   0  0  0  0  0  0  0  0  0  0  0  0
   21.1175   18.4086   20.8230 C   0  0  0  0  0  0  0  0  0  0  0  0
   21.2182   17.9745   21.8241 H   0  0  0  0  0  0  0  0  0  0  0  0
   22.1198   18.7064   20.4890 H   0  0  0  0  0  0  0  0  0  0  0  0
   20.7577   17.6239   20.1449 H   0  0  0  0  0  0  0  0  0  0  0  0
  1  2  1  0  0  0  0
  1  3  1  0  0  0  0
  1  4  1  0  0  0  0
  1  5  1  0  0  0  0
  5  6  1  0  0  0  0
  5  7  1  0  0  0  0
  5  8  1  0  0  0  0
  8  9  1  0  0  0  0
  8 10  1  0  0  0  0
  8 11  1  0  0  0  0
 11 12  1  0  0  0  0
 11 13  1  0  0  0  0
 11 14  1  0  0  0  0
 14 15  1  0  0  0  0
 14 16  1  0  0  0  0
 14 17  1  0  0  0  0
 17 18  1  0  0  0  0
 17 19  1  0  0  0  0
 17 20  1  0  0  0  0
 20 21  1  0  0  0  0
 20 22  1  0  0  0  0
 20 23  1  0  0  0  0
M  END
> <VM2 Rank>
77

> <Conf_Id>
561

> <Probability>
0.01

> <Sum Probability>
99.99

> <Delta G>
4.562

> <G>
42.479

> <E>
13.903

> <-TS>
28.576

> <U+W>
-4.877

> <U>
51.403

> <W>
-56.279

> <W(PB)>
-58.290

> <W(SA)>
2.011

> <Valence>
4.890

> <Coulomb>
46.339

> <VdW>
0.174

> <VdW6>
-8.062

> <VdW12>
8.235

> <Bond>
0.255

> <Angle>
1.788

> <Pdih>
2.848

> <Idih>
0.000

> <Tether>
0.000

$$$$
VeraChem MOL file


 23 22  0  0  0  0  0  0  0  0999 V2000     
   19.3635   17.7797   24.5919 N   0  3  0  0  0  0  0  0  0  0  0  0
   18.7178   17.7195   23.7998 H   0  0  0  0  0  0  0  0  0  0  0  0
   18.8663   17.4287   25.4175 H   0  0  0  0  0  0  0  0  0  0  0  0
   20.1332   17.1283   24.4081 H   0  0  0  0  0  0  0  0  0  0  0  0
   19.8646   19.1953   24.7981 C   0  0  0  0  0  0  0  0  0  0  0  0
   20.5518   19.1701   25.6481 H   0  0  0  0  0  0  0  0  0  0  0  0
   19.0147   19.8272   25.0693 H   0  0  0  0  0  0  0  0  0  0  0  0
   20.5937   19.7986   23.5793 C   0  0  0  0  0  0  0  0  0  0  0  0
   21.2088   20.6322   23.9431 H   0  0  0  0  0  0  0  0  0  0  0  0
   21.3008   19.0719   23.1597 H   0  0  0  0  0  0  0  0  0  0  0  0
   19.6504   20.3559   22.4798 C   0  0  0  0  0  0  0  0  0  0  0  0
   20.2556   20.8971   21.7404 H   0  0  0  0  0  0  0  0  0  0  0  0
   18.9943   21.1141   22.9291 H   0  0  0  0  0  0  0  0  0  0  0  0
   18.7685   19.3133   21.7421 C   0  0  0  0  0  0  0  0  0  0  0  0
   18.0317   18.8949   22.4385 H   0  0  0  0  0  0  0  0  0  0  0  0
   18.1763   19.8395   20.9806 H   0  0  0  0  0  0  0  0  0  0  0  0
   19.5442   18.1614   21.0528 C   0  0  0  0  0  0  0  0  0  0  0  0
   18.8189   17.4804   20.5859 H   0  0  0  0  0  0  0  0  0  0  0  0
   20.0856   17.5625   21.7960 H   0  0  0  0  0  0  0  0  0  0  0  0
   20.5312   18.6528   19.9700 C   0  0  0  0  0  0  0  0  0  0  0  0
   21.3418   19.2496   20.4063 H   0  0  0  0  0  0  0  0  0  0  0  0
   20.0186   19.2663   19.2178 H   0  0  0  0  0  0  0  0  0  0  0  0
   20.9899   17.8005   19.4523 H   0  0  0  0  0  0  0  0  0  0  0  0
  1  2  1  0  0  0  0
  1  3  1  0  0  0  0
  1  4  1  0  0  0  0
  1  5  1  0  0  0  0
  5  6  1  0  0  0  0
  5  7  1  0  0  0  0
  5  8  1  0  0  0  0
  8  9  1  0  0  0  0
  8 10  1  0  0  0  0
  8 11  1  0  0  0  0
 11 12  1  0  0  0  0
 11 13  1  0  0  0  0
 11 14  1  0  0  0  0
 14 15  1  0  0  0  0
 14 16  1  0  0  0  0
 14 17  1  0  0  0  0
 17 18  1  0  0  0  0
 17 19  1  0  0  0  0
 17 20  1  0  0  0  0
 20 21  1  0  0  0  0
 20 22  1  0  0  0  0
 20 23  1  0  0  0  0
M  END
> <VM2 Rank>
78

> <Conf_Id>
938

> <Probability>
0.00

> <Sum Probability>
99.99

> <Delta G>
4.664

> <G>
42.581

> <E>
14.117

> <-TS>
28.463

> <U+W>
-4.662

> <U>
51.396

> <W>
-56.058

> <W(PB)>
-58.085

> <W(SA)>
2.026

> <Valence>
4.232

> <Coulomb>
46.940

> <VdW>
0.225

> <VdW6>
-8.093

> <VdW12>
8.318

> <Bond>
0.258

> <Angle>
1.778

> <Pdih>
2.195

> <Idih>
0.000

> <Tether>
0.000

$$$$
VeraChem MOL file


 23 22  0  0  0  0  0  0  0  0999 V2000     
   20.7730   18.3659   24.6560 N   0  3  0  0  0  0  0  0  0  0  0  0
   20.7081   17.3675   24.4340 H   0  0  0  0  0  0  0  0  0  0  0  0
   21.3065   18.4435   25.5286 H   0  0  0  0  0  0  0  0  0  0  0  0
   21.3303   18.8063   23.9188 H   0  0  0  0  0  0  0  0  0  0  0  0
   19.4030   19.0033   24.7770 C   0  0  0  0  0  0  0  0  0  0  0  0
   19.5313   20.0420   25.0929 H   0  0  0  0  0  0  0  0  0  0  0  0
   18.8726   18.4715   25.5716 H   0  0  0  0  0  0  0  0  0  0  0  0
   18.5586   18.9521   23.4866 C   0  0  0  0  0  0  0  0  0  0  0  0
   18.6092   17.9523   23.0370 H   0  0  0  0  0  0  0  0  0  0  0  0
   17.5084   19.0931   23.7745 H   0  0  0  0  0  0  0  0  0  0  0  0
   18.9115   20.0486   22.4462 C   0  0  0  0  0  0  0  0  0  0  0  0
   18.8004   21.0335   22.9203 H   0  0  0  0  0  0  0  0  0  0  0  0
   18.1609   20.0258   21.6449 H   0  0  0  0  0  0  0  0  0  0  0  0
   20.3259   19.9612   21.8131 C   0  0  0  0  0  0  0  0  0  0  0  0
   20.4282   20.7761   21.0832 H   0  0  0  0  0  0  0  0  0  0  0  0
   21.0853   20.1652   22.5777 H   0  0  0  0  0  0  0  0  0  0  0  0
   20.6503   18.6216   21.1033 C   0  0  0  0  0  0  0  0  0  0  0  0
   20.6366   17.7917   21.8212 H   0  0  0  0  0  0  0  0  0  0  0  0
   21.6779   18.6696   20.7163 H   0  0  0  0  0  0  0  0  0  0  0  0
   19.6937   18.3044   19.9319 C   0  0  0  0  0  0  0  0  0  0  0  0
   18.6683   18.1375   20.2844 H   0  0  0  0  0  0  0  0  0  0  0  0
   20.0153   17.3950   19.4079 H   0  0  0  0  0  0  0  0  0  0  0  0
   19.6775   19.1244   19.2023 H   0  0  0  0  0  0  0  0  0  0  0  0
  1  2  1  0  0  0  0
  1  3  1  0  0  0  0
  1  4  1  0  0  0  0
  1  5  1  0  0  0  0
  5  6  1  0  0  0  0
  5  7  1  0  0  0  0
  5  8  1  0  0  0  0
  8  9  1  0  0  0  0
  8 10  1  0  0  0  0
  8 11  1  0  0  0  0
 11 12  1  0  0  0  0
 11 13  1  0  0  0  0
 11 14  1  0  0  0  0
 14 15  1  0  0  0  0
 14 16  1  0  0  0  0
 14 17  1  0  0  0  0
 17 18  1  0  0  0  0
 17 19  1  0  0  0  0
 17 20  1  0  0  0  0
 20 21  1  0  0  0  0
 20 22  1  0  0  0  0
 20 23  1  0  0  0  0
M  END
> <VM2 Rank>
79

> <Conf_Id>
140

> <Probability>
0.00

> <Sum Probability>
100.00

> <Delta G>
4.718

> <G>
42.634

> <E>
14.171

> <-TS>
28.464

> <U+W>
-4.608

> <U>
51.397

> <W>
-56.005

> <W(PB)>
-58.025

> <W(SA)>
2.020

> <Valence>
4.231

> <Coulomb>
46.940

> <VdW>
0.225

> <VdW6>
-8.093

> <VdW12>
8.318

> <Bond>
0.258

> <Angle>
1.778

> <Pdih>
2.195

> <Idih>
0.000

> <Tether>
0.000

$$$$
VeraChem MOL file


 23 22  0  0  0  0  0  0  0  0999 V2000     
   19.2366   17.6402   24.2850 N   0  3  0  0  0  0  0  0  0  0  0  0
   18.3731   17.1395   24.5209 H   0  0  0  0  0  0  0  0  0  0  0  0
   19.9624   17.3048   24.9265 H   0  0  0  0  0  0  0  0  0  0  0  0
   19.5068   17.3532   23.3395 H   0  0  0  0  0  0  0  0  0  0  0  0
   19.0588   19.1428   24.3751 C   0  0  0  0  0  0  0  0  0  0  0  0
   18.7363   19.3789   25.3928 H   0  0  0  0  0  0  0  0  0  0  0  0
   18.2567   19.4361   23.6944 H   0  0  0  0  0  0  0  0  0  0  0  0
   20.3370   19.9391   24.0498 C   0  0  0  0  0  0  0  0  0  0  0  0
   20.1164   21.0104   24.1462 H   0  0  0  0  0  0  0  0  0  0  0  0
   21.0903   19.7172   24.8173 H   0  0  0  0  0  0  0  0  0  0  0  0
   20.9547   19.6679   22.6515 C   0  0  0  0  0  0  0  0  0  0  0  0
   21.2719   18.6219   22.5661 H   0  0  0  0  0  0  0  0  0  0  0  0
   21.8842   20.2510   22.5934 H   0  0  0  0  0  0  0  0  0  0  0  0
   20.0675   20.0851   21.4460 C   0  0  0  0  0  0  0  0  0  0  0  0
   19.5618   21.0323   21.6785 H   0  0  0  0  0  0  0  0  0  0  0  0
   20.7260   20.3064   20.5946 H   0  0  0  0  0  0  0  0  0  0  0  0
   19.0184   19.0441   20.9746 C   0  0  0  0  0  0  0  0  0  0  0  0
   18.4218   19.4994   20.1717 H   0  0  0  0  0  0  0  0  0  0  0  0
   18.3051   18.8123   21.7728 H   0  0  0  0  0  0  0  0  0  0  0  0
   19.6429   17.7378   20.4321 C   0  0  0  0  0  0  0  0  0  0  0  0
   18.8634   17.0812   20.0242 H   0  0  0  0  0  0  0  0  0  0  0  0
   20.1693   17.1772   21.2129 H   0  0  0  0  0  0  0  0  0  0  0  0
   20.3560   17.9492   19.6246 H   0  0  0  0  0  0  0  0  0  0  0  0
  1  2  1  0  0  0  0
  1  3  1  0  0  0  0
  1  4  1  0  0  0  0
  1  5  1  0  0  0  0
  5  6  1  0  0  0  0
  5  7  1  0  0  0  0
  5  8  1  0  0  0  0
  8  9  1  0  0  0  0
  8 10  1  0  0  0  0
  8 11  1  0  0  0  0
 11 12  1  0  0  0  0
 11 13  1  0  0  0  0
 11 14  1  0  0  0  0
 14 15  1  0  0  0  0
 14 16  1  0  0  0  0
 14 17  1  0  0  0  0
 17 18  1  0  0  0  0
 17 19  1  0  0  0  0
 17 20  1  0  0  0  0
 20 21  1  0  0  0  0
 20 22  1  0  0  0  0
 20 23  1  0  0  0  0
M  END
> <VM2 Rank>
80

> <Conf_Id>
487

> <Probability>
0.00

> <Sum Probability>
100.00

> <Delta G>
5.387

> <G>
43.303

> <E>
14.887

> <-TS>
28.416

> <U+W>
-3.892

> <U>
51.834

> <W>
-55.726

> <W(PB)>
-57.738

> <W(SA)>
2.013

> <Valence>
5.094

> <Coulomb>
46.450

> <VdW>
0.290

> <VdW6>
-8.010

> <VdW12>
8.300

> <Bond>
0.281

> <Angle>
2.109

> <Pdih>
2.704

> <Idih>
0.000

> <Tether>
0.000

$$$$
VeraChem MOL file


 23 22  0  0  0  0  0  0  0  0999 V2000     
   20.8536   18.5095   25.2446 N   0  3  0  0  0  0  0  0  0  0  0  0
   21.7184   18.9442   25.5839 H   0  0  0  0  0  0  0  0  0  0  0  0
   21.0978   17.5651   24.9299 H   0  0  0  0  0  0  0  0  0  0  0  0
   20.2348   18.4064   26.0552 H   0  0  0  0  0  0  0  0  0  0  0  0
   20.2087   19.3249   24.1424 C   0  0  0  0  0  0  0  0  0  0  0  0
   20.9333   19.4247   23.3319 H   0  0  0  0  0  0  0  0  0  0  0  0
   20.0016   20.3225   24.5390 H   0  0  0  0  0  0  0  0  0  0  0  0
   18.9035   18.6990   23.6135 C   0  0  0  0  0  0  0  0  0  0  0  0
   19.0809   17.6746   23.2610 H   0  0  0  0  0  0  0  0  0  0  0  0
   18.2008   18.6188   24.4536 H   0  0  0  0  0  0  0  0  0  0  0  0
   18.2393   19.5397   22.4951 C   0  0  0  0  0  0  0  0  0  0  0  0
   18.3430   20.6103   22.7199 H   0  0  0  0  0  0  0  0  0  0  0  0
   17.1594   19.3377   22.5175 H   0  0  0  0  0  0  0  0  0  0  0  0
   18.7347   19.2497   21.0522 C   0  0  0  0  0  0  0  0  0  0  0  0
   18.5239   18.2049   20.7856 H   0  0  0  0  0  0  0  0  0  0  0  0
   18.1212   19.8541   20.3695 H   0  0  0  0  0  0  0  0  0  0  0  0
   20.2226   19.5818   20.7737 C   0  0  0  0  0  0  0  0  0  0  0  0
   20.5642   20.3943   21.4290 H   0  0  0  0  0  0  0  0  0  0  0  0
   20.3083   19.9703   19.7491 H   0  0  0  0  0  0  0  0  0  0  0  0
   21.1537   18.3524   20.8925 C   0  0  0  0  0  0  0  0  0  0  0  0
   20.8853   17.5877   20.1521 H   0  0  0  0  0  0  0  0  0  0  0  0
   21.1026   17.8888   21.8835 H   0  0  0  0  0  0  0  0  0  0  0  0
   22.1971   18.6402   20.7100 H   0  0  0  0  0  0  0  0  0  0  0  0
  1  2  1  0  0  0  0
  1  3  1  0  0  0  0
  1  4  1  0  0  0  0
  1  5  1  0  0  0  0
  5  6  1  0  0  0  0
  5  7  1  0  0  0  0
  5  8  1  0  0  0  0
  8  9  1  0  0  0  0
  8 10  1  0  0  0  0
  8 11  1  0  0  0  0
 11 12  1  0  0  0  0
 11 13  1  0  0  0  0
 11 14  1  0  0  0  0
 14 15  1  0  0  0  0
 14 16  1  0  0  0  0
 14 17  1  0  0  0  0
 17 18  1  0  0  0  0
 17 19  1  0  0  0  0
 17 20  1  0  0  0  0
 20 21  1  0  0  0  0
 20 22  1  0  0  0  0
 20 23  1  0  0  0  0
M  END
> <VM2 Rank>
81

> <Conf_Id>
736

> <Probability>
0.00

> <Sum Probability>
100.00

> <Delta G>
5.840

> <G>
43.756

> <E>
15.363

> <-TS>
28.393

> <U+W>
-3.416

> <U>
52.784

> <W>
-56.200

> <W(PB)>
-58.238

> <W(SA)>
2.038

> <Valence>
6.630

> <Coulomb>
45.869

> <VdW>
0.285

> <VdW6>
-7.559

> <VdW12>
7.844

> <Bond>
0.231

> <Angle>
1.767

> <Pdih>
4.632

> <Idih>
0.000

> <Tether>
0.000

$$$$
VeraChem MOL file


 23 22  0  0  0  0  0  0  0  0999 V2000     
   19.1596   17.8048   25.1674 N   0  3  0  0  0  0  0  0  0  0  0  0
   18.2185   17.4885   25.4245 H   0  0  0  0  0  0  0  0  0  0  0  0
   19.6042   18.1440   26.0265 H   0  0  0  0  0  0  0  0  0  0  0  0
   19.6811   16.9758   24.8653 H   0  0  0  0  0  0  0  0  0  0  0  0
   19.1206   18.8723   24.0928 C   0  0  0  0  0  0  0  0  0  0  0  0
   18.5290   19.7100   24.4720 H   0  0  0  0  0  0  0  0  0  0  0  0
   18.6040   18.4560   23.2258 H   0  0  0  0  0  0  0  0  0  0  0  0
   20.5209   19.3718   23.6872 C   0  0  0  0  0  0  0  0  0  0  0  0
   21.0058   19.7855   24.5814 H   0  0  0  0  0  0  0  0  0  0  0  0
   21.1489   18.5348   23.3552 H   0  0  0  0  0  0  0  0  0  0  0  0
   20.4787   20.4712   22.5972 C   0  0  0  0  0  0  0  0  0  0  0  0
   21.3781   21.0924   22.7098 H   0  0  0  0  0  0  0  0  0  0  0  0
   19.6306   21.1459   22.7786 H   0  0  0  0  0  0  0  0  0  0  0  0
   20.4482   19.9625   21.1303 C   0  0  0  0  0  0  0  0  0  0  0  0
   20.5039   20.8451   20.4781 H   0  0  0  0  0  0  0  0  0  0  0  0
   21.3566   19.3831   20.9147 H   0  0  0  0  0  0  0  0  0  0  0  0
   19.1902   19.1524   20.7266 C   0  0  0  0  0  0  0  0  0  0  0  0
   18.9344   19.3989   19.6865 H   0  0  0  0  0  0  0  0  0  0  0  0
   18.3244   19.4626   21.3269 H   0  0  0  0  0  0  0  0  0  0  0  0
   19.3977   17.6220   20.8125 C   0  0  0  0  0  0  0  0  0  0  0  0
   20.1850   17.2964   20.1202 H   0  0  0  0  0  0  0  0  0  0  0  0
   18.4757   17.0923   20.5403 H   0  0  0  0  0  0  0  0  0  0  0  0
   19.6849   17.2991   21.8190 H   0  0  0  0  0  0  0  0  0  0  0  0
  1  2  1  0  0  0  0
  1  3  1  0  0  0  0
  1  4  1  0  0  0  0
  1  5  1  0  0  0  0
  5  6  1  0  0  0  0
  5  7  1  0  0  0  0
  5  8  1  0  0  0  0
  8  9  1  0  0  0  0
  8 10  1  0  0  0  0
  8 11  1  0  0  0  0
 11 12  1  0  0  0  0
 11 13  1  0  0  0  0
 11 14  1  0  0  0  0
 14 15  1  0  0  0  0
 14 16  1  0  0  0  0
 14 17  1  0  0  0  0
 17 18  1  0  0  0  0
 17 19  1  0  0  0  0
 17 20  1  0  0  0  0
 20 21  1  0  0  0  0
 20 22  1  0  0  0  0
 20 23  1  0  0  0  0
M  END
> <VM2 Rank>
82

> <Conf_Id>
496

> <Probability>
0.00

> <Sum Probability>
100.00

> <Delta G>
5.873

> <G>
43.789

> <E>
15.396

> <-TS>
28.393

> <U+W>
-3.383

> <U>
52.784

> <W>
-56.167

> <W(PB)>
-58.215

> <W(SA)>
2.048

> <Valence>
6.630

> <Coulomb>
45.869

> <VdW>
0.285

> <VdW6>
-7.559

> <VdW12>
7.844

> <Bond>
0.231

> <Angle>
1.767

> <Pdih>
4.632

> <Idih>
0.000

> <Tether>
0.000

$$$$
VeraChem MOL file


 23 22  0  0  0  0  0  0  0  0999 V2000     
   20.6910   18.5196   24.9675 N   0  3  0  0  0  0  0  0  0  0  0  0
   20.9966   18.4771   25.9456 H   0  0  0  0  0  0  0  0  0  0  0  0
   21.2350   19.2598   24.5138 H   0  0  0  0  0  0  0  0  0  0  0  0
   20.9577   17.6314   24.5312 H   0  0  0  0  0  0  0  0  0  0  0  0
   19.2023   18.7769   24.8546 C   0  0  0  0  0  0  0  0  0  0  0  0
   18.9842   19.7168   25.3688 H   0  0  0  0  0  0  0  0  0  0  0  0
   18.6883   17.9731   25.3886 H   0  0  0  0  0  0  0  0  0  0  0  0
   18.6694   18.8469   23.4077 C   0  0  0  0  0  0  0  0  0  0  0  0
   18.8592   17.8966   22.8945 H   0  0  0  0  0  0  0  0  0  0  0  0
   17.5775   18.9471   23.4650 H   0  0  0  0  0  0  0  0  0  0  0  0
   19.2271   20.0451   22.5934 C   0  0  0  0  0  0  0  0  0  0  0  0
   19.3713   20.8973   23.2719 H   0  0  0  0  0  0  0  0  0  0  0  0
   18.4691   20.3766   21.8705 H   0  0  0  0  0  0  0  0  0  0  0  0
   20.5535   19.7583   21.8377 C   0  0  0  0  0  0  0  0  0  0  0  0
   21.1548   20.6780   21.8382 H   0  0  0  0  0  0  0  0  0  0  0  0
   21.1540   19.0082   22.3657 H   0  0  0  0  0  0  0  0  0  0  0  0
   20.3648   19.3229   20.3622 C   0  0  0  0  0  0  0  0  0  0  0  0
   21.3551   19.2296   19.8948 H   0  0  0  0  0  0  0  0  0  0  0  0
   19.8404   20.1139   19.8081 H   0  0  0  0  0  0  0  0  0  0  0  0
   19.6078   17.9874   20.1908 C   0  0  0  0  0  0  0  0  0  0  0  0
   20.0931   17.1821   20.7571 H   0  0  0  0  0  0  0  0  0  0  0  0
   19.5888   17.6899   19.1344 H   0  0  0  0  0  0  0  0  0  0  0  0
   18.5671   18.0719   20.5275 H   0  0  0  0  0  0  0  0  0  0  0  0
  1  2  1  0  0  0  0
  1  3  1  0  0  0  0
  1  4  1  0  0  0  0
  1  5  1  0  0  0  0
  5  6  1  0  0  0  0
  5  7  1  0  0  0  0
  5  8  1  0  0  0  0
  8  9  1  0  0  0  0
  8 10  1  0  0  0  0
  8 11  1  0  0  0  0
 11 12  1  0  0  0  0
 11 13  1  0  0  0  0
 11 14  1  0  0  0  0
 14 15  1  0  0  0  0
 14 16  1  0  0  0  0
 14 17  1  0  0  0  0
 17 18  1  0  0  0  0
 17 19  1  0  0  0  0
 17 20  1  0  0  0  0
 20 21  1  0  0  0  0
 20 22  1  0  0  0  0
 20 23  1  0  0  0  0
M  END
> <VM2 Rank>
83

> <Conf_Id>
104

> <Probability>
0.00

> <Sum Probability>
100.00

> <Delta G>
6.275

> <G>
44.192

> <E>
16.072

> <-TS>
28.120

> <U+W>
-2.707

> <U>
53.344

> <W>
-56.051

> <W(PB)>
-58.096

> <W(SA)>
2.045

> <Valence>
6.531

> <Coulomb>
46.150

> <VdW>
0.663

> <VdW6>
-7.490

> <VdW12>
8.152

> <Bond>
0.263

> <Angle>
1.395

> <Pdih>
4.873

> <Idih>
0.000

> <Tether>
0.000

$$$$
VeraChem MOL file


 23 22  0  0  0  0  0  0  0  0999 V2000     
   18.6558   18.8683   25.0223 N   0  3  0  0  0  0  0  0  0  0  0  0
   17.8190   18.3349   25.2811 H   0  0  0  0  0  0  0  0  0  0  0  0
   18.3357   19.7698   24.6563 H   0  0  0  0  0  0  0  0  0  0  0  0
   19.1683   19.0585   25.8893 H   0  0  0  0  0  0  0  0  0  0  0  0
   19.5099   18.1225   24.0156 C   0  0  0  0  0  0  0  0  0  0  0  0
   18.8966   17.9250   23.1344 H   0  0  0  0  0  0  0  0  0  0  0  0
   19.7803   17.1616   24.4619 H   0  0  0  0  0  0  0  0  0  0  0  0
   20.7958   18.8745   23.6124 C   0  0  0  0  0  0  0  0  0  0  0  0
   21.3666   19.0868   24.5261 H   0  0  0  0  0  0  0  0  0  0  0  0
   21.4333   18.2165   23.0077 H   0  0  0  0  0  0  0  0  0  0  0  0
   20.5507   20.2049   22.8525 C   0  0  0  0  0  0  0  0  0  0  0  0
   21.4297   20.8454   23.0093 H   0  0  0  0  0  0  0  0  0  0  0  0
   19.7099   20.7531   23.2966 H   0  0  0  0  0  0  0  0  0  0  0  0
   20.3447   20.0750   21.3190 C   0  0  0  0  0  0  0  0  0  0  0  0
   20.2711   21.0932   20.9123 H   0  0  0  0  0  0  0  0  0  0  0  0
   21.2411   19.6405   20.8554 H   0  0  0  0  0  0  0  0  0  0  0  0
   19.0822   19.2935   20.8757 C   0  0  0  0  0  0  0  0  0  0  0  0
   18.6641   19.7802   19.9833 H   0  0  0  0  0  0  0  0  0  0  0  0
   18.2998   19.3591   21.6436 H   0  0  0  0  0  0  0  0  0  0  0  0
   19.3768   17.8183   20.5165 C   0  0  0  0  0  0  0  0  0  0  0  0
   19.8335   17.2732   21.3499 H   0  0  0  0  0  0  0  0  0  0  0  0
   20.0624   17.7554   19.6615 H   0  0  0  0  0  0  0  0  0  0  0  0
   18.4515   17.2965   20.2399 H   0  0  0  0  0  0  0  0  0  0  0  0
  1  2  1  0  0  0  0
  1  3  1  0  0  0  0
  1  4  1  0  0  0  0
  1  5  1  0  0  0  0
  5  6  1  0  0  0  0
  5  7  1  0  0  0  0
  5  8  1  0  0  0  0
  8  9  1  0  0  0  0
  8 10  1  0  0  0  0
  8 11  1  0  0  0  0
 11 12  1  0  0  0  0
 11 13  1  0  0  0  0
 11 14  1  0  0  0  0
 14 15  1  0  0  0  0
 14 16  1  0  0  0  0
 14 17  1  0  0  0  0
 17 18  1  0  0  0  0
 17 19  1  0  0  0  0
 17 20  1  0  0  0  0
 20 21  1  0  0  0  0
 20 22  1  0  0  0  0
 20 23  1  0  0  0  0
M  END
> <VM2 Rank>
84

> <Conf_Id>
378

> <Probability>
0.00

> <Sum Probability>
100.00

> <Delta G>
6.344

> <G>
44.261

> <E>
15.790

> <-TS>
28.471

> <U+W>
-2.989

> <U>
53.200

> <W>
-56.189

> <W(PB)>
-58.231

> <W(SA)>
2.042

> <Valence>
6.810

> <Coulomb>
46.000

> <VdW>
0.390

> <VdW6>
-8.050

> <VdW12>
8.440

> <Bond>
0.260

> <Angle>
1.891

> <Pdih>
4.660

> <Idih>
0.000

> <Tether>
0.000

$$$$
VeraChem MOL file


 23 22  0  0  0  0  0  0  0  0999 V2000     
   19.2698   17.5934   24.0686 N   0  3  0  0  0  0  0  0  0  0  0  0
   18.4345   17.0315   24.2655 H   0  0  0  0  0  0  0  0  0  0  0  0
   20.0528   17.1450   24.5552 H   0  0  0  0  0  0  0  0  0  0  0  0
   19.4555   17.5258   23.0628 H   0  0  0  0  0  0  0  0  0  0  0  0
   19.0928   19.0360   24.5013 C   0  0  0  0  0  0  0  0  0  0  0  0
   18.9014   19.0253   25.5778 H   0  0  0  0  0  0  0  0  0  0  0  0
   18.2094   19.4451   24.0039 H   0  0  0  0  0  0  0  0  0  0  0  0
   20.3162   19.9309   24.2166 C   0  0  0  0  0  0  0  0  0  0  0  0
   20.2622   20.7948   24.8923 H   0  0  0  0  0  0  0  0  0  0  0  0
   21.2371   19.3975   24.4873 H   0  0  0  0  0  0  0  0  0  0  0  0
   20.4184   20.4709   22.7647 C   0  0  0  0  0  0  0  0  0  0  0  0
   21.2959   21.1309   22.7209 H   0  0  0  0  0  0  0  0  0  0  0  0
   19.5559   21.1146   22.5424 H   0  0  0  0  0  0  0  0  0  0  0  0
   20.5756   19.3900   21.6646 C   0  0  0  0  0  0  0  0  0  0  0  0
   21.2436   19.7809   20.8844 H   0  0  0  0  0  0  0  0  0  0  0  0
   21.0833   18.5056   22.0719 H   0  0  0  0  0  0  0  0  0  0  0  0
   19.2351   19.0047   20.9927 C   0  0  0  0  0  0  0  0  0  0  0  0
   18.8376   19.8753   20.4521 H   0  0  0  0  0  0  0  0  0  0  0  0
   18.4781   18.7433   21.7417 H   0  0  0  0  0  0  0  0  0  0  0  0
   19.4081   17.8310   20.0055 C   0  0  0  0  0  0  0  0  0  0  0  0
   18.4514   17.5820   19.5281 H   0  0  0  0  0  0  0  0  0  0  0  0
   19.7736   16.9310   20.5165 H   0  0  0  0  0  0  0  0  0  0  0  0
   20.1228   18.0862   19.2121 H   0  0  0  0  0  0  0  0  0  0  0  0
  1  2  1  0  0  0  0
  1  3  1  0  0  0  0
  1  4  1  0  0  0  0
  1  5  1  0  0  0  0
  5  6  1  0  0  0  0
  5  7  1  0  0  0  0
  5  8  1  0  0  0  0
  8  9  1  0  0  0  0
  8 10  1  0  0  0  0
  8 11  1  0  0  0  0
 11 12  1  0  0  0  0
 11 13  1  0  0  0  0
 11 14  1  0  0  0  0
 14 15  1  0  0  0  0
 14 16  1  0  0  0  0
 14 17  1  0  0  0  0
 17 18  1  0  0  0  0
 17 19  1  0  0  0  0
 17 20  1  0  0  0  0
 20 21  1  0  0  0  0
 20 22  1  0  0  0  0
 20 23  1  0  0  0  0
M  END
> <VM2 Rank>
85

> <Conf_Id>
221

> <Probability>
0.00

> <Sum Probability>
100.00

> <Delta G>
6.772

> <G>
44.688

> <E>
16.391

> <-TS>
28.298

> <U+W>
-2.389

> <U>
52.836

> <W>
-55.224

> <W(PB)>
-57.261

> <W(SA)>
2.037

> <Valence>
5.785

> <Coulomb>
46.744

> <VdW>
0.307

> <VdW6>
-7.671

> <VdW12>
7.978

> <Bond>
0.217

> <Angle>
1.470

> <Pdih>
4.098

> <Idih>
0.000

> <Tether>
0.000

$$$$
VeraChem MOL file


 23 22  0  0  0  0  0  0  0  0999 V2000     
   21.0112   18.3178   24.1478 N   0  3  0  0  0  0  0  0  0  0  0  0
   21.0067   18.1712   23.1333 H   0  0  0  0  0  0  0  0  0  0  0  0
   20.7413   17.4313   24.5863 H   0  0  0  0  0  0  0  0  0  0  0  0
   21.9801   18.5065   24.4269 H   0  0  0  0  0  0  0  0  0  0  0  0
   20.0806   19.4469   24.5463 C   0  0  0  0  0  0  0  0  0  0  0  0
   20.4496   20.3770   24.1060 H   0  0  0  0  0  0  0  0  0  0  0  0
   20.1391   19.5400   25.6342 H   0  0  0  0  0  0  0  0  0  0  0  0
   18.6103   19.2213   24.1389 C   0  0  0  0  0  0  0  0  0  0  0  0
   18.3205   18.1842   24.3544 H   0  0  0  0  0  0  0  0  0  0  0  0
   17.9842   19.8471   24.7886 H   0  0  0  0  0  0  0  0  0  0  0  0
   18.2689   19.5768   22.6667 C   0  0  0  0  0  0  0  0  0  0  0  0
   18.4358   20.6487   22.4914 H   0  0  0  0  0  0  0  0  0  0  0  0
   17.1890   19.4227   22.5337 H   0  0  0  0  0  0  0  0  0  0  0  0
   19.0090   18.7384   21.5932 C   0  0  0  0  0  0  0  0  0  0  0  0
   19.2471   17.7419   21.9881 H   0  0  0  0  0  0  0  0  0  0  0  0
   18.3239   18.5665   20.7513 H   0  0  0  0  0  0  0  0  0  0  0  0
   20.2750   19.4373   21.0401 C   0  0  0  0  0  0  0  0  0  0  0  0
   20.9333   19.7646   21.8536 H   0  0  0  0  0  0  0  0  0  0  0  0
   19.9796   20.3503   20.5041 H   0  0  0  0  0  0  0  0  0  0  0  0
   21.0610   18.5185   20.0810 C   0  0  0  0  0  0  0  0  0  0  0  0
   20.4403   18.2181   19.2267 H   0  0  0  0  0  0  0  0  0  0  0  0
   21.4020   17.6083   20.5910 H   0  0  0  0  0  0  0  0  0  0  0  0
   21.9460   19.0355   19.6876 H   0  0  0  0  0  0  0  0  0  0  0  0
  1  2  1  0  0  0  0
  1  3  1  0  0  0  0
  1  4  1  0  0  0  0
  1  5  1  0  0  0  0
  5  6  1  0  0  0  0
  5  7  1  0  0  0  0
  5  8  1  0  0  0  0
  8  9  1  0  0  0  0
  8 10  1  0  0  0  0
  8 11  1  0  0  0  0
 11 12  1  0  0  0  0
 11 13  1  0  0  0  0
 11 14  1  0  0  0  0
 14 15  1  0  0  0  0
 14 16  1  0  0  0  0
 14 17  1  0  0  0  0
 17 18  1  0  0  0  0
 17 19  1  0  0  0  0
 17 20  1  0  0  0  0
 20 21  1  0  0  0  0
 20 22  1  0  0  0  0
 20 23  1  0  0  0  0
M  END
> <VM2 Rank>
86

> <Conf_Id>
462

> <Probability>
0.00

> <Sum Probability>
100.00

> <Delta G>
6.862

> <G>
44.778

> <E>
16.481

> <-TS>
28.298

> <U+W>
-2.299

> <U>
52.836

> <W>
-55.134

> <W(PB)>
-57.205

> <W(SA)>
2.071

> <Valence>
5.785

> <Coulomb>
46.744

> <VdW>
0.307

> <VdW6>
-7.672

> <VdW12>
7.979

> <Bond>
0.217

> <Angle>
1.469

> <Pdih>
4.098

> <Idih>
0.000

> <Tether>
0.000

$$$$
VeraChem MOL file


 23 22  0  0  0  0  0  0  0  0999 V2000     
   19.0229   17.8557   24.4794 N   0  3  0  0  0  0  0  0  0  0  0  0
   18.0964   17.5028   24.7426 H   0  0  0  0  0  0  0  0  0  0  0  0
   19.6908   17.4741   25.1571 H   0  0  0  0  0  0  0  0  0  0  0  0
   19.2548   17.4562   23.5652 H   0  0  0  0  0  0  0  0  0  0  0  0
   19.0602   19.3712   24.4482 C   0  0  0  0  0  0  0  0  0  0  0  0
   18.8094   19.7173   25.4546 H   0  0  0  0  0  0  0  0  0  0  0  0
   18.2854   19.7272   23.7639 H   0  0  0  0  0  0  0  0  0  0  0  0
   20.4278   19.9559   24.0410 C   0  0  0  0  0  0  0  0  0  0  0  0
   20.4884   20.9749   24.4456 H   0  0  0  0  0  0  0  0  0  0  0  0
   21.2344   19.3927   24.5290 H   0  0  0  0  0  0  0  0  0  0  0  0
   20.6798   20.0385   22.5118 C   0  0  0  0  0  0  0  0  0  0  0  0
   21.6527   20.5277   22.3659 H   0  0  0  0  0  0  0  0  0  0  0  0
   19.9439   20.7111   22.0532 H   0  0  0  0  0  0  0  0  0  0  0  0
   20.7144   18.6754   21.7699 C   0  0  0  0  0  0  0  0  0  0  0  0
   21.4794   18.7211   20.9823 H   0  0  0  0  0  0  0  0  0  0  0  0
   21.0564   17.8892   22.4559 H   0  0  0  0  0  0  0  0  0  0  0  0
   19.3699   18.2664   21.1138 C   0  0  0  0  0  0  0  0  0  0  0  0
   18.5421   18.3569   21.8275 H   0  0  0  0  0  0  0  0  0  0  0  0
   19.4224   17.2057   20.8309 H   0  0  0  0  0  0  0  0  0  0  0  0
   19.0411   19.0939   19.8500 C   0  0  0  0  0  0  0  0  0  0  0  0
   19.8410   19.0084   19.1030 H   0  0  0  0  0  0  0  0  0  0  0  0
   18.9053   20.1567   20.0839 H   0  0  0  0  0  0  0  0  0  0  0  0
   18.1125   18.7357   19.3870 H   0  0  0  0  0  0  0  0  0  0  0  0
  1  2  1  0  0  0  0
  1  3  1  0  0  0  0
  1  4  1  0  0  0  0
  1  5  1  0  0  0  0
  5  6  1  0  0  0  0
  5  7  1  0  0  0  0
  5  8  1  0  0  0  0
  8  9  1  0  0  0  0
  8 10  1  0  0  0  0
  8 11  1  0  0  0  0
 11 12  1  0  0  0  0
 11 13  1  0  0  0  0
 11 14  1  0  0  0  0
 14 15  1  0  0  0  0
 14 16  1  0  0  0  0
 14 17  1  0  0  0  0
 17 18  1  0  0  0  0
 17 19  1  0  0  0  0
 17 20  1  0  0  0  0
 20 21  1  0  0  0  0
 20 22  1  0  0  0  0
 20 23  1  0  0  0  0
M  END
> <VM2 Rank>
87

> <Conf_Id>
678

> <Probability>
0.00

> <Sum Probability>
100.00

> <Delta G>
6.934

> <G>
44.850

> <E>
16.564

> <-TS>
28.286

> <U+W>
-2.215

> <U>
53.835

> <W>
-56.051

> <W(PB)>
-58.080

> <W(SA)>
2.029

> <Valence>
6.519

> <Coulomb>
46.847

> <VdW>
0.469

> <VdW6>
-7.907

> <VdW12>
8.375

> <Bond>
0.262

> <Angle>
1.644

> <Pdih>
4.614

> <Idih>
0.000

> <Tether>
0.000

$$$$
VeraChem MOL file


 23 22  0  0  0  0  0  0  0  0999 V2000     
   20.9670   18.6646   24.5680 N   0  3  0  0  0  0  0  0  0  0  0  0
   21.8467   19.0632   24.9135 H   0  0  0  0  0  0  0  0  0  0  0  0
   21.1580   18.2482   23.6518 H   0  0  0  0  0  0  0  0  0  0  0  0
   20.7159   17.9005   25.2037 H   0  0  0  0  0  0  0  0  0  0  0  0
   19.8701   19.7082   24.4851 C   0  0  0  0  0  0  0  0  0  0  0  0
   20.2149   20.5301   23.8520 H   0  0  0  0  0  0  0  0  0  0  0  0
   19.7230   20.0974   25.4963 H   0  0  0  0  0  0  0  0  0  0  0  0
   18.5279   19.1654   23.9545 C   0  0  0  0  0  0  0  0  0  0  0  0
   18.3227   18.1812   24.3963 H   0  0  0  0  0  0  0  0  0  0  0  0
   17.7324   19.8282   24.3200 H   0  0  0  0  0  0  0  0  0  0  0  0
   18.4112   19.0946   22.4084 C   0  0  0  0  0  0  0  0  0  0  0  0
   18.4870   20.1049   21.9868 H   0  0  0  0  0  0  0  0  0  0  0  0
   17.3932   18.7555   22.1718 H   0  0  0  0  0  0  0  0  0  0  0  0
   19.4097   18.1325   21.7104 C   0  0  0  0  0  0  0  0  0  0  0  0
   19.6731   17.3136   22.3928 H   0  0  0  0  0  0  0  0  0  0  0  0
   18.9014   17.6485   20.8648 H   0  0  0  0  0  0  0  0  0  0  0  0
   20.6937   18.8173   21.1741 C   0  0  0  0  0  0  0  0  0  0  0  0
   21.4299   18.0410   20.9224 H   0  0  0  0  0  0  0  0  0  0  0  0
   21.1552   19.4443   21.9466 H   0  0  0  0  0  0  0  0  0  0  0  0
   20.4365   19.6744   19.9135 C   0  0  0  0  0  0  0  0  0  0  0  0
   21.3778   20.0943   19.5358 H   0  0  0  0  0  0  0  0  0  0  0  0
   19.7610   20.5127   20.1227 H   0  0  0  0  0  0  0  0  0  0  0  0
   19.9938   19.0717   19.1099 H   0  0  0  0  0  0  0  0  0  0  0  0
  1  2  1  0  0  0  0
  1  3  1  0  0  0  0
  1  4  1  0  0  0  0
  1  5  1  0  0  0  0
  5  6  1  0  0  0  0
  5  7  1  0  0  0  0
  5  8  1  0  0  0  0
  8  9  1  0  0  0  0
  8 10  1  0  0  0  0
  8 11  1  0  0  0  0
 11 12  1  0  0  0  0
 11 13  1  0  0  0  0
 11 14  1  0  0  0  0
 14 15  1  0  0  0  0
 14 16  1  0  0  0  0
 14 17  1  0  0  0  0
 17 18  1  0  0  0  0
 17 19  1  0  0  0  0
 17 20  1  0  0  0  0
 20 21  1  0  0  0  0
 20 22  1  0  0  0  0
 20 23  1  0  0  0  0
M  END
> <VM2 Rank>
88

> <Conf_Id>
677

> <Probability>
0.00

> <Sum Probability>
100.00

> <Delta G>
7.089

> <G>
45.005

> <E>
16.719

> <-TS>
28.286

> <U+W>
-2.060

> <U>
53.835

> <W>
-55.896

> <W(PB)>
-57.909

> <W(SA)>
2.013

> <Valence>
6.519

> <Coulomb>
46.847

> <VdW>
0.469

> <VdW6>
-7.907

> <VdW12>
8.376

> <Bond>
0.262

> <Angle>
1.644

> <Pdih>
4.614

> <Idih>
0.000

> <Tether>
0.000

$$$$
VeraChem MOL file


 23 22  0  0  0  0  0  0  0  0999 V2000     
   20.7513   18.0434   24.4332 N   0  3  0  0  0  0  0  0  0  0  0  0
   21.2864   18.3510   23.6166 H   0  0  0  0  0  0  0  0  0  0  0  0
   20.4447   17.0825   24.2510 H   0  0  0  0  0  0  0  0  0  0  0  0
   21.4013   18.0039   25.2257 H   0  0  0  0  0  0  0  0  0  0  0  0
   19.5776   18.9611   24.7151 C   0  0  0  0  0  0  0  0  0  0  0  0
   19.9620   19.9502   24.9782 H   0  0  0  0  0  0  0  0  0  0  0  0
   19.0608   18.5554   25.5890 H   0  0  0  0  0  0  0  0  0  0  0  0
   18.5741   19.0813   23.5495 C   0  0  0  0  0  0  0  0  0  0  0  0
   18.4441   18.1093   23.0637 H   0  0  0  0  0  0  0  0  0  0  0  0
   17.5946   19.3194   23.9848 H   0  0  0  0  0  0  0  0  0  0  0  0
   18.9070   20.1996   22.5236 C   0  0  0  0  0  0  0  0  0  0  0  0
   18.9084   21.1544   23.0675 H   0  0  0  0  0  0  0  0  0  0  0  0
   18.0862   20.2796   21.7978 H   0  0  0  0  0  0  0  0  0  0  0  0
   20.2539   20.0867   21.7575 C   0  0  0  0  0  0  0  0  0  0  0  0
   20.5230   21.0995   21.4269 H   0  0  0  0  0  0  0  0  0  0  0  0
   21.0682   19.7874   22.4252 H   0  0  0  0  0  0  0  0  0  0  0  0
   20.2339   19.1958   20.4882 C   0  0  0  0  0  0  0  0  0  0  0  0
   21.1939   19.3219   19.9682 H   0  0  0  0  0  0  0  0  0  0  0  0
   19.4653   19.5604   19.7925 H   0  0  0  0  0  0  0  0  0  0  0  0
   20.0181   17.6891   20.7470 C   0  0  0  0  0  0  0  0  0  0  0  0
   20.6911   17.3145   21.5275 H   0  0  0  0  0  0  0  0  0  0  0  0
   20.2171   17.1151   19.8327 H   0  0  0  0  0  0  0  0  0  0  0  0
   18.9831   17.4773   21.0371 H   0  0  0  0  0  0  0  0  0  0  0  0
  1  2  1  0  0  0  0
  1  3  1  0  0  0  0
  1  4  1  0  0  0  0
  1  5  1  0  0  0  0
  5  6  1  0  0  0  0
  5  7  1  0  0  0  0
  5  8  1  0  0  0  0
  8  9  1  0  0  0  0
  8 10  1  0  0  0  0
  8 11  1  0  0  0  0
 11 12  1  0  0  0  0
 11 13  1  0  0  0  0
 11 14  1  0  0  0  0
 14 15  1  0  0  0  0
 14 16  1  0  0  0  0
 14 17  1  0  0  0  0
 17 18  1  0  0  0  0
 17 19  1  0  0  0  0
 17 20  1  0  0  0  0
 20 21  1  0  0  0  0
 20 22  1  0  0  0  0
 20 23  1  0  0  0  0
M  END
> <VM2 Rank>
89

> <Conf_Id>
111

> <Probability>
0.00

> <Sum Probability>
100.00

> <Delta G>
7.141

> <G>
45.057

> <E>
17.320

> <-TS>
27.736

> <U+W>
-1.459

> <U>
54.309

> <W>
-55.768

> <W(PB)>
-57.775

> <W(SA)>
2.007

> <Valence>
6.918

> <Coulomb>
47.202

> <VdW>
0.189

> <VdW6>
-7.842

> <VdW12>
8.031

> <Bond>
0.291

> <Angle>
2.811

> <Pdih>
3.817

> <Idih>
0.000

> <Tether>
0.000

$$$$
VeraChem MOL file


 23 22  0  0  0  0  0  0  0  0999 V2000     
   19.9037   17.5534   24.1686 N   0  3  0  0  0  0  0  0  0  0  0  0
   19.3165   17.4291   23.3395 H   0  0  0  0  0  0  0  0  0  0  0  0
   19.5879   16.8771   24.8723 H   0  0  0  0  0  0  0  0  0  0  0  0
   20.8588   17.2898   23.9075 H   0  0  0  0  0  0  0  0  0  0  0  0
   19.8386   18.9750   24.6875 C   0  0  0  0  0  0  0  0  0  0  0  0
   20.5113   19.0321   25.5475 H   0  0  0  0  0  0  0  0  0  0  0  0
   18.8220   19.1657   25.0418 H   0  0  0  0  0  0  0  0  0  0  0  0
   20.2402   20.0559   23.6615 C   0  0  0  0  0  0  0  0  0  0  0  0
   20.4859   20.9630   24.2293 H   0  0  0  0  0  0  0  0  0  0  0  0
   21.1659   19.7809   23.1442 H   0  0  0  0  0  0  0  0  0  0  0  0
   19.1214   20.4306   22.6547 C   0  0  0  0  0  0  0  0  0  0  0  0
   19.4273   21.3388   22.1174 H   0  0  0  0  0  0  0  0  0  0  0  0
   18.2271   20.7172   23.2252 H   0  0  0  0  0  0  0  0  0  0  0  0
   18.7128   19.3573   21.6094 C   0  0  0  0  0  0  0  0  0  0  0  0
   18.3536   18.4424   22.0938 H   0  0  0  0  0  0  0  0  0  0  0  0
   17.8364   19.7547   21.0785 H   0  0  0  0  0  0  0  0  0  0  0  0
   19.7880   19.0360   20.5381 C   0  0  0  0  0  0  0  0  0  0  0  0
   20.3880   19.9304   20.3203 H   0  0  0  0  0  0  0  0  0  0  0  0
   19.2724   18.7861   19.6000 H   0  0  0  0  0  0  0  0  0  0  0  0
   20.7114   17.8488   20.8943 C   0  0  0  0  0  0  0  0  0  0  0  0
   21.3491   18.0665   21.7563 H   0  0  0  0  0  0  0  0  0  0  0  0
   21.3758   17.6202   20.0508 H   0  0  0  0  0  0  0  0  0  0  0  0
   20.1290   16.9437   21.1084 H   0  0  0  0  0  0  0  0  0  0  0  0
  1  2  1  0  0  0  0
  1  3  1  0  0  0  0
  1  4  1  0  0  0  0
  1  5  1  0  0  0  0
  5  6  1  0  0  0  0
  5  7  1  0  0  0  0
  5  8  1  0  0  0  0
  8  9  1  0  0  0  0
  8 10  1  0  0  0  0
  8 11  1  0  0  0  0
 11 12  1  0  0  0  0
 11 13  1  0  0  0  0
 11 14  1  0  0  0  0
 14 15  1  0  0  0  0
 14 16  1  0  0  0  0
 14 17  1  0  0  0  0
 17 18  1  0  0  0  0
 17 19  1  0  0  0  0
 17 20  1  0  0  0  0
 20 21  1  0  0  0  0
 20 22  1  0  0  0  0
 20 23  1  0  0  0  0
M  END
> <VM2 Rank>
90

> <Conf_Id>
893

> <Probability>
0.00

> <Sum Probability>
100.00

> <Delta G>
7.858

> <G>
45.774

> <E>
17.502

> <-TS>
28.272

> <U+W>
-1.277

> <U>
54.197

> <W>
-55.474

> <W(PB)>
-57.475

> <W(SA)>
2.000

> <Valence>
6.838

> <Coulomb>
47.373

> <VdW>
-0.014

> <VdW6>
-8.198

> <VdW12>
8.183

> <Bond>
0.272

> <Angle>
2.668

> <Pdih>
3.899

> <Idih>
0.000

> <Tether>
0.000

$$$$
