@<TRIPOS>MOLECULE
CD_guest-s11_fast_vm2_single.mol2 : feprocess host+ligand conformer 1
         146         151           2
SMALL
USER_CHARGES
 
@<TRIPOS>ATOM
       1    C1      16.045710   15.045846   20.371791 C.3        1 MOL1         0.2972
       2    H1      15.010793   14.843650   20.067600 H          1 MOL1         0.0751
       3    O1      16.250211   16.448217   20.652679 O.3        1 MOL1        -0.3740
       4    C2      16.464236   14.169770   21.581855 C.3        1 MOL1         0.1003
       5    H2      16.474702   13.129643   21.230170 H          1 MOL1         0.0783
       6    O2      15.542422   14.261858   22.676927 O.3        1 MOL1        -0.5519
       7    H3      15.636392   15.172126   23.053054 H          1 MOL1         0.3769
       8    C3      17.903878   14.528997   22.023932 C.3        1 MOL1         0.1053
       9    H4      17.913072   15.573346   22.360258 H          1 MOL1         0.0783
      10    O3      18.278058   13.671438   23.108427 O.3        1 MOL1        -0.5519
      11    H5      17.460837   13.572169   23.648089 H          1 MOL1         0.3769
      12    C4      18.894407   14.402638   20.828740 C.3        1 MOL1         0.1018
      13    H6      19.087390   13.339026   20.640232 H          1 MOL1         0.0783
      14    C5      18.346176   15.059146   19.528087 C.3        1 MOL1         0.1043
      15    H7      18.411106   16.147836   19.647827 H          1 MOL1         0.0783
      16    O4      16.957607   14.695148   19.308088 O.3        1 MOL1        -0.3740
      17    C6      19.163195   14.699933   18.262353 C.3        1 MOL1         0.0138
      18    H8      20.139351   15.199779   18.321292 H          1 MOL1         0.0794
      19    H9      18.642704   15.107749   17.385677 H          1 MOL1         0.0794
      20    O5      19.352457   13.288111   18.107501 O.3        1 MOL1        -0.5486
      21    H10     20.021744   13.003969   18.766334 H          1 MOL1         0.3769
      22    C7      14.989431   20.065643   21.985203 C.3        1 MOL1         0.2972
      23    H11     14.487857   20.957949   22.380442 H          1 MOL1         0.0751
      24    O6      16.207089   20.403483   21.290193 O.3        1 MOL1        -0.3740
      25    C8      15.326884   19.090362   23.138134 C.3        1 MOL1         0.1003
      26    H12     14.381049   18.836983   23.634745 H          1 MOL1         0.0783
      27    O7      16.228679   19.686191   24.088485 O.3        1 MOL1        -0.5519
      28    H13     16.115126   20.665941   24.015255 H          1 MOL1         0.3769
      29    C9      15.964454   17.790902   22.606204 C.3        1 MOL1         0.1053
      30    H14     16.975397   18.043036   22.278373 H          1 MOL1         0.0783
      31    O8      16.043424   16.859042   23.687789 O.3        1 MOL1        -0.5519
      32    H15     16.237781   17.402069   24.483916 H          1 MOL1         0.3769
      33    C10     15.237223   17.176064   21.379193 C.3        1 MOL1         0.1018
      34    H16     14.419692   16.529495   21.723424 H          1 MOL1         0.0783
      35    C11     14.699393   18.240262   20.378268 C.3        1 MOL1         0.1043
      36    H17     15.546955   18.595044   19.777697 H          1 MOL1         0.0783
      37    O9      14.118258   19.372835   21.069477 O.3        1 MOL1        -0.3740
      38    C12     13.653542   17.674486   19.388453 C.3        1 MOL1         0.0138
      39    H18     14.161327   16.979890   18.705707 H          1 MOL1         0.0794
      40    H19     13.262213   18.501799   18.781306 H          1 MOL1         0.0794
      41    O10     12.582512   16.999480   20.059824 O.3        1 MOL1        -0.5486
      42    H20     11.927208   16.729378   19.379684 H          1 MOL1         0.3769
      43    C13     18.535512   23.832509   20.678312 C.3        1 MOL1         0.2972
      44    H21     18.880029   24.838390   20.406003 H          1 MOL1         0.0751
      45    O11     19.651718   22.947870   20.920135 O.3        1 MOL1        -0.3740
      46    C14     17.599320   23.879263   21.920164 C.3        1 MOL1         0.1003
      47    H22     16.729899   24.486368   21.635784 H          1 MOL1         0.0783
      48    O12     18.223564   24.490146   23.058521 O.3        1 MOL1        -0.5519
      49    H23     18.962259   23.890905   23.333847 H          1 MOL1         0.3769
      50    C15     17.084293   22.462886   22.276577 C.3        1 MOL1         0.1053
      51    H24     17.942488   21.846503   22.576571 H          1 MOL1         0.0783
      52    O13     16.156017   22.567603   23.362597 O.3        1 MOL1        -0.5519
      53    H25     16.548042   23.238327   23.966867 H          1 MOL1         0.3769
      54    C16     16.419779   21.805752   21.036318 C.3        1 MOL1         0.1018
      55    H26     15.472572   22.318779   20.825179 H          1 MOL1         0.0783
      56    C17     17.332858   21.896195   19.783581 C.3        1 MOL1         0.1043
      57    H27     18.211486   21.262216   19.951859 H          1 MOL1         0.0783
      58    O14     17.765929   23.266426   19.593443 O.3        1 MOL1        -0.3740
      59    C18     16.659524   21.393762   18.481852 C.3        1 MOL1         0.0138
      60    H28     16.663885   20.295872   18.489881 H          1 MOL1         0.0794
      61    H29     17.270342   21.712276   17.626682 H          1 MOL1         0.0794
      62    O15     15.315243   21.866085   18.331963 O.3        1 MOL1        -0.5486
      63    H30     14.764429   21.399177   18.997305 H          1 MOL1         0.3769
      64    C19     23.648069   22.764835   21.987266 C.3        1 MOL1         0.2972
      65    H31     24.676707   22.942712   22.326304 H          1 MOL1         0.0751
      66    O16     23.524517   21.504462   21.293111 O.3        1 MOL1        -0.3740
      67    C20     22.656606   22.815266   23.182051 C.3        1 MOL1         0.1003
      68    H32     22.700280   23.831151   23.596238 H          1 MOL1         0.0783
      69    O17     22.976454   21.875292   24.218898 O.3        1 MOL1        -0.5519
      70    H33     23.883699   21.530842   24.038176 H          1 MOL1         0.3769
      71    C21     21.218718   22.558559   22.691219 C.3        1 MOL1         0.1053
      72    H34     21.189793   21.536770   22.299345 H          1 MOL1         0.0783
      73    O18     20.320929   22.679685   23.798055 O.3        1 MOL1        -0.5519
      74    H35     20.788214   22.228194   24.538015 H          1 MOL1         0.3769
      75    C22     20.821368   23.519778   21.545031 C.3        1 MOL1         0.1018
      76    H36     20.621572   24.511968   21.970211 H          1 MOL1         0.0783
      77    C23     21.928735   23.627003   20.455996 C.3        1 MOL1         0.1043
      78    H37     21.926724   22.694296   19.876840 H          1 MOL1         0.0783
      79    O19     23.235706   23.800189   21.068034 O.3        1 MOL1        -0.3740
      80    C24     21.697550   24.784061   19.454916 C.3        1 MOL1         0.0138
      81    H38     20.844586   24.524065   18.813551 H          1 MOL1         0.0794
      82    H39     22.579914   24.867448   18.806313 H          1 MOL1         0.0794
      83    O20     21.445342   26.030186   20.116139 O.3        1 MOL1        -0.5486
      84    H40     21.391353   26.727979   19.426964 H          1 MOL1         0.3769
      85    C25     25.147253   17.753811   21.011859 C.3        1 MOL1         0.2972
      86    H41     25.736447   16.840509   20.860430 H          1 MOL1         0.0751
      87    O21     23.734583   17.460233   21.091020 O.3        1 MOL1        -0.3740
      88    C26     25.617394   18.516890   22.278241 C.3        1 MOL1         0.1003
      89    H42     26.662601   18.803817   22.102992 H          1 MOL1         0.0783
      90    O22     25.554758   17.705676   23.460702 O.3        1 MOL1        -0.5519
      91    H43     24.594947   17.532110   23.633576 H          1 MOL1         0.3769
      92    C27     24.800112   19.813660   22.485510 C.3        1 MOL1         0.1053
      93    H44     23.780715   19.526308   22.778180 H          1 MOL1         0.0783
      94    O23     25.420278   20.566819   23.533387 O.3        1 MOL1        -0.5519
      95    H45     25.682951   19.897913   24.206515 H          1 MOL1         0.3769
      96    C28     24.702933   20.675651   21.195983 C.3        1 MOL1         0.1018
      97    H46     25.613202   21.280260   21.098193 H          1 MOL1         0.0783
      98    C29     24.506565   19.836395   19.901522 C.3        1 MOL1         0.1043
      99    H47     23.459395   19.519422   19.867373 H          1 MOL1         0.0783
     100    O24     25.346765   18.656592   19.905129 O.3        1 MOL1        -0.3740
     101    C30     24.768510   20.633546   18.600168 C.3        1 MOL1         0.0138
     102    H48     23.979160   21.388983   18.486546 H          1 MOL1         0.0794
     103    H49     24.682791   19.944753   17.749322 H          1 MOL1         0.0794
     104    O25     26.053621   21.267398   18.587423 O.3        1 MOL1        -0.5486
     105    H50     26.005228   22.054459   19.170841 H          1 MOL1         0.3769
     106    C31     21.035003   14.417100   22.015312 C.3        1 MOL1         0.2972
     107    H51     20.599207   13.486695   22.398623 H          1 MOL1         0.0751
     108    O26     20.118358   15.105052   21.138927 O.3        1 MOL1        -0.3740
     109    C32     21.409619   15.353940   23.196862 C.3        1 MOL1         0.1003
     110    H52     22.059172   14.777874   23.868702 H          1 MOL1         0.0783
     111    O27     20.238717   15.787182   23.917989 O.3        1 MOL1        -0.5519
     112    H53     19.609199   15.026395   23.907029 H          1 MOL1         0.3769
     113    C33     22.196370   16.591896   22.711555 C.3        1 MOL1         0.1053
     114    H54     21.498305   17.220207   22.153980 H          1 MOL1         0.0783
     115    O28     22.691533   17.303424   23.850077 O.3        1 MOL1        -0.5519
     116    H55     21.939154   17.319466   24.481960 H          1 MOL1         0.3769
     117    C34     23.353534   16.232978   21.749476 C.3        1 MOL1         0.1018
     118    H56     24.177963   15.796450   22.328128 H          1 MOL1         0.0783
     119    C35     22.900210   15.235974   20.650319 C.3        1 MOL1         0.1043
     120    H57     22.202260   15.754709   19.979990 H          1 MOL1         0.0783
     121    O29     22.228193   14.110630   21.264063 O.3        1 MOL1        -0.3740
     122    C36     24.062995   14.696902   19.782665 C.3        1 MOL1         0.0138
     123    H58     24.416066   15.507727   19.131212 H          1 MOL1         0.0794
     124    H59     23.674601   13.901912   19.132050 H          1 MOL1         0.0794
     125    O30     25.149698   14.204585   20.577031 O.3        1 MOL1        -0.5486
     126    H60     25.805888   13.801546   19.967467 H          1 MOL1         0.3769
     127    N1      19.050833   18.612109   24.013513 N.4        1 MOL1        -0.5919
     128    H1      18.039665   18.813793   23.953076 H          1 MOL1         0.3682
     129    H2      19.189605   17.588973   23.983842 H          1 MOL1         0.3682
     130    H3      19.352632   18.925133   24.941319 H          1 MOL1         0.3682
     131    C1      19.828273   19.309356   22.916663 C.3        1 MOL1         0.0252
     132    H4      20.890512   19.118944   23.094605 H          1 MOL1         0.0971
     133    H5      19.650734   20.383757   23.009470 H          1 MOL1         0.0971
     134    C2      19.450146   18.840760   21.499331 C.3        1 MOL1        -0.1369
     135    H6      19.396078   17.744321   21.477645 H          1 MOL1         0.0997
     136    H7      18.453166   19.212944   21.245609 H          1 MOL1         0.0997
     137    C3      20.455441   19.329787   20.435498 C.3        1 MOL1        -0.1329
     138    H8      21.466970   19.007803   20.712057 H          1 MOL1         0.0997
     139    H9      20.467905   20.426981   20.412733 H          1 MOL1         0.0997
     140    C4      20.102078   18.787292   19.033694 C.3        1 MOL1        -0.1305
     141    H10     20.118933   17.689390   19.049089 H          1 MOL1         0.0997
     142    H11     19.078531   19.086228   18.768723 H          1 MOL1         0.0997
     143    C5      21.078496   19.293880   17.952219 C.3        1 MOL1        -0.2320
     144    H12     22.092451   18.914871   18.129081 H          1 MOL1         0.1008
     145    H13     20.764768   18.950758   16.957864 H          1 MOL1         0.1008
     146    H14     21.115888   20.390952   17.933844 H          1 MOL1         0.1008
@<TRIPOS>BOND
    1     1     2    1
    2     1     3    1
    3     1     4    1
    4     4     5    1
    5     4     6    1
    6     6     7    1
    7     4     8    1
    8     8     9    1
    9     8    10    1
   10    10    11    1
   11     8    12    1
   12    12    13    1
   13    12    14    1
   14    14    15    1
   15     1    16    1
   16    14    16    1
   17    14    17    1
   18    17    18    1
   19    17    19    1
   20    17    20    1
   21    20    21    1
   22    22    23    1
   23    22    24    1
   24    22    25    1
   25    25    26    1
   26    25    27    1
   27    27    28    1
   28    25    29    1
   29    29    30    1
   30    29    31    1
   31    31    32    1
   32     3    33    1
   33    29    33    1
   34    33    34    1
   35    33    35    1
   36    35    36    1
   37    22    37    1
   38    35    37    1
   39    35    38    1
   40    38    39    1
   41    38    40    1
   42    38    41    1
   43    41    42    1
   44    43    44    1
   45    43    45    1
   46    43    46    1
   47    46    47    1
   48    46    48    1
   49    48    49    1
   50    46    50    1
   51    50    51    1
   52    50    52    1
   53    52    53    1
   54    24    54    1
   55    50    54    1
   56    54    55    1
   57    54    56    1
   58    56    57    1
   59    43    58    1
   60    56    58    1
   61    56    59    1
   62    59    60    1
   63    59    61    1
   64    59    62    1
   65    62    63    1
   66    64    65    1
   67    64    66    1
   68    64    67    1
   69    67    68    1
   70    67    69    1
   71    69    70    1
   72    67    71    1
   73    71    72    1
   74    71    73    1
   75    73    74    1
   76    45    75    1
   77    71    75    1
   78    75    76    1
   79    75    77    1
   80    77    78    1
   81    64    79    1
   82    77    79    1
   83    77    80    1
   84    80    81    1
   85    80    82    1
   86    80    83    1
   87    83    84    1
   88    85    86    1
   89    85    87    1
   90    85    88    1
   91    88    89    1
   92    88    90    1
   93    90    91    1
   94    88    92    1
   95    92    93    1
   96    92    94    1
   97    94    95    1
   98    66    96    1
   99    92    96    1
  100    96    97    1
  101    96    98    1
  102    98    99    1
  103    85   100    1
  104    98   100    1
  105    98   101    1
  106   101   102    1
  107   101   103    1
  108   101   104    1
  109   104   105    1
  110   106   107    1
  111    12   108    1
  112   106   108    1
  113   106   109    1
  114   109   110    1
  115   109   111    1
  116   111   112    1
  117   109   113    1
  118   113   114    1
  119   113   115    1
  120   115   116    1
  121    87   117    1
  122   113   117    1
  123   117   118    1
  124   117   119    1
  125   119   120    1
  126   106   121    1
  127   119   121    1
  128   119   122    1
  129   122   123    1
  130   122   124    1
  131   122   125    1
  132   125   126    1
  133   127   128    1
  134   127   129    1
  135   127   130    1
  136   127   131    1
  137   131   132    1
  138   131   133    1
  139   131   134    1
  140   134   135    1
  141   134   136    1
  142   134   137    1
  143   137   138    1
  144   137   139    1
  145   137   140    1
  146   140   141    1
  147   140   142    1
  148   140   143    1
  149   143   144    1
  150   143   145    1
  151   143   146    1
@<TRIPOS>SUBSTRUCTURE
       1 MOL1            1 RESIDUE      1      MOL     
       2 MOL1          146 RESIDUE      1      MOL     
@<SCITEGIC>MOL_PROPERTY
feprocess Rank
SciTegic.value.IntegerValue
1

@<SCITEGIC>MOL_PROPERTY
Conf_Id
SciTegic.value.IntegerValue
1

@<SCITEGIC>MOL_PROPERTY
Probability
SciTegic.value.DoubleValue
100.00

@<SCITEGIC>MOL_PROPERTY
G
SciTegic.value.DoubleValue
563.689

@<SCITEGIC>MOL_PROPERTY
E
SciTegic.value.DoubleValue
368.388

@<SCITEGIC>MOL_PROPERTY
-TS
SciTegic.value.DoubleValue
195.301

@<SCITEGIC>MOL_PROPERTY
U+W
SciTegic.value.DoubleValue
239.617

@<SCITEGIC>MOL_PROPERTY
U
SciTegic.value.DoubleValue
323.042

@<SCITEGIC>MOL_PROPERTY
W
SciTegic.value.DoubleValue
-83.425

@<SCITEGIC>MOL_PROPERTY
W(PB)
SciTegic.value.DoubleValue
-89.460

@<SCITEGIC>MOL_PROPERTY
W(SA)
SciTegic.value.DoubleValue
6.035

@<SCITEGIC>MOL_PROPERTY
Valence
SciTegic.value.DoubleValue
145.603

@<SCITEGIC>MOL_PROPERTY
Coulomb
SciTegic.value.DoubleValue
199.089

@<SCITEGIC>MOL_PROPERTY
VdW
SciTegic.value.DoubleValue
-21.650

@<SCITEGIC>MOL_PROPERTY
VdW6
SciTegic.value.DoubleValue
-179.535

@<SCITEGIC>MOL_PROPERTY
VdW12
SciTegic.value.DoubleValue
157.885

@<SCITEGIC>MOL_PROPERTY
Bond
SciTegic.value.DoubleValue
4.923

@<SCITEGIC>MOL_PROPERTY
Angle
SciTegic.value.DoubleValue
14.266

@<SCITEGIC>MOL_PROPERTY
Pdih
SciTegic.value.DoubleValue
126.414

@<SCITEGIC>MOL_PROPERTY
Idih
SciTegic.value.DoubleValue
0.000

@<SCITEGIC>MOL_PROPERTY
Tether
SciTegic.value.DoubleValue
0.000

