@<TRIPOS>MOLECULE
guest-s16_vm2.mol2 : vm2 ligand conformer 1
          13          13           1
SMALL
USER_CHARGES
 
@<TRIPOS>ATOM
       1    C1      19.718388   18.988698   20.930846 C.3        1 MOL1        -0.1693
       2    H1      18.784500   19.299602   20.444247 H          1 MOL1         0.0829
       3    H2      20.460412   18.765716   20.154947 H          1 MOL1         0.0829
       4    C2      19.545959   17.907019   22.047792 C.3        1 MOL1        -0.1768
       5    H3      20.463179   17.361627   22.302838 H          1 MOL1         0.0829
       6    H4      18.736001   17.184612   21.898564 H          1 MOL1         0.0829
       7    C3      19.222596   19.106153   22.989444 C.3        1 MOL1         0.1211
       8    H5      18.179059   19.445722   22.936686 H          1 MOL1         0.0786
       9    C4      20.196005   19.925305   22.089272 C.3        1 MOL1        -0.1768
      10    H6      21.255400   19.823641   22.355602 H          1 MOL1         0.0829
      11    H7      19.960945   20.989510   21.978929 H          1 MOL1         0.0829
      12    O1      19.630051   18.947825   24.328646 O.3        1 MOL1        -0.5515
      13    H8      19.029604   18.288951   24.739196 H          1 MOL1         0.3773
@<TRIPOS>BOND
    1     1     2    1
    2     1     3    1
    3     1     4    1
    4     4     5    1
    5     4     6    1
    6     4     7    1
    7     7     8    1
    8     1     9    1
    9     7     9    1
   10     9    10    1
   11     9    11    1
   12     7    12    1
   13    12    13    1
@<TRIPOS>SUBSTRUCTURE
       1 MOL1            1 RESIDUE      1      MOL     
@<SCITEGIC>MOL_PROPERTY
VM2 Rank
SciTegic.value.IntegerValue
1

@<SCITEGIC>MOL_PROPERTY
Conf_Id
SciTegic.value.IntegerValue
19

@<SCITEGIC>MOL_PROPERTY
Probability
SciTegic.value.DoubleValue
32.01

@<SCITEGIC>MOL_PROPERTY
Sum Probability
SciTegic.value.DoubleValue
32.01

@<SCITEGIC>MOL_PROPERTY
Delta G
SciTegic.value.DoubleValue
0.000

@<SCITEGIC>MOL_PROPERTY
G
SciTegic.value.DoubleValue
16.554

@<SCITEGIC>MOL_PROPERTY
E
SciTegic.value.DoubleValue
6.694

@<SCITEGIC>MOL_PROPERTY
-TS
SciTegic.value.DoubleValue
9.860

@<SCITEGIC>MOL_PROPERTY
U+W
SciTegic.value.DoubleValue
-3.142

@<SCITEGIC>MOL_PROPERTY
U
SciTegic.value.DoubleValue
-0.154

@<SCITEGIC>MOL_PROPERTY
W
SciTegic.value.DoubleValue
-2.989

@<SCITEGIC>MOL_PROPERTY
W(PB)
SciTegic.value.DoubleValue
-4.588

@<SCITEGIC>MOL_PROPERTY
W(SA)
SciTegic.value.DoubleValue
1.599

@<SCITEGIC>MOL_PROPERTY
Valence
SciTegic.value.DoubleValue
6.334

@<SCITEGIC>MOL_PROPERTY
Coulomb
SciTegic.value.DoubleValue
-7.439

@<SCITEGIC>MOL_PROPERTY
VdW
SciTegic.value.DoubleValue
0.951

@<SCITEGIC>MOL_PROPERTY
VdW6
SciTegic.value.DoubleValue
-2.120

@<SCITEGIC>MOL_PROPERTY
VdW12
SciTegic.value.DoubleValue
3.072

@<SCITEGIC>MOL_PROPERTY
Bond
SciTegic.value.DoubleValue
0.065

@<SCITEGIC>MOL_PROPERTY
Angle
SciTegic.value.DoubleValue
0.930

@<SCITEGIC>MOL_PROPERTY
Pdih
SciTegic.value.DoubleValue
5.339

@<SCITEGIC>MOL_PROPERTY
Idih
SciTegic.value.DoubleValue
0.000

@<SCITEGIC>MOL_PROPERTY
Tether
SciTegic.value.DoubleValue
0.000

@<TRIPOS>MOLECULE
guest-s16_vm2.mol2 : vm2 ligand conformer 2
          13          13           1
SMALL
USER_CHARGES
 
@<TRIPOS>ATOM
       1    C1      19.718341   18.988592   20.930845 C.3        1 MOL1        -0.1693
       2    H1      20.460262   18.765349   20.154924 H          1 MOL1         0.0829
       3    H2      18.784342   19.299180   20.444259 H          1 MOL1         0.0829
       4    C2      19.546016   17.907147   22.048022 C.3        1 MOL1        -0.1768
       5    H3      20.462496   17.361736   22.305274 H          1 MOL1         0.0829
       6    H4      18.735592   17.184921   21.901172 H          1 MOL1         0.0829
       7    C3      19.222655   19.106316   22.989446 C.3        1 MOL1         0.1211
       8    H5      18.177721   19.441543   22.936594 H          1 MOL1         0.0786
       9    C4      20.196051   19.925446   22.089044 C.3        1 MOL1        -0.1768
      10    H6      21.256067   19.823400   22.353140 H          1 MOL1         0.0829
      11    H7      19.961512   20.989617   21.976337 H          1 MOL1         0.0829
      12    O1      19.629937   18.947500   24.328643 O.3        1 MOL1        -0.5515
      13    H8      19.521538   19.817108   24.770495 H          1 MOL1         0.3773
@<TRIPOS>BOND
    1     1     2    1
    2     1     3    1
    3     1     4    1
    4     4     5    1
    5     4     6    1
    6     4     7    1
    7     7     8    1
    8     1     9    1
    9     7     9    1
   10     9    10    1
   11     9    11    1
   12     7    12    1
   13    12    13    1
@<TRIPOS>SUBSTRUCTURE
       1 MOL1            1 RESIDUE      1      MOL     
@<SCITEGIC>MOL_PROPERTY
VM2 Rank
SciTegic.value.IntegerValue
2

@<SCITEGIC>MOL_PROPERTY
Conf_Id
SciTegic.value.IntegerValue
130

@<SCITEGIC>MOL_PROPERTY
Probability
SciTegic.value.DoubleValue
31.42

@<SCITEGIC>MOL_PROPERTY
Sum Probability
SciTegic.value.DoubleValue
63.43

@<SCITEGIC>MOL_PROPERTY
Delta G
SciTegic.value.DoubleValue
0.011

@<SCITEGIC>MOL_PROPERTY
G
SciTegic.value.DoubleValue
16.565

@<SCITEGIC>MOL_PROPERTY
E
SciTegic.value.DoubleValue
6.705

@<SCITEGIC>MOL_PROPERTY
-TS
SciTegic.value.DoubleValue
9.860

@<SCITEGIC>MOL_PROPERTY
U+W
SciTegic.value.DoubleValue
-3.131

@<SCITEGIC>MOL_PROPERTY
U
SciTegic.value.DoubleValue
-0.154

@<SCITEGIC>MOL_PROPERTY
W
SciTegic.value.DoubleValue
-2.978

@<SCITEGIC>MOL_PROPERTY
W(PB)
SciTegic.value.DoubleValue
-4.579

@<SCITEGIC>MOL_PROPERTY
W(SA)
SciTegic.value.DoubleValue
1.601

@<SCITEGIC>MOL_PROPERTY
Valence
SciTegic.value.DoubleValue
6.333

@<SCITEGIC>MOL_PROPERTY
Coulomb
SciTegic.value.DoubleValue
-7.439

@<SCITEGIC>MOL_PROPERTY
VdW
SciTegic.value.DoubleValue
0.952

@<SCITEGIC>MOL_PROPERTY
VdW6
SciTegic.value.DoubleValue
-2.120

@<SCITEGIC>MOL_PROPERTY
VdW12
SciTegic.value.DoubleValue
3.072

@<SCITEGIC>MOL_PROPERTY
Bond
SciTegic.value.DoubleValue
0.065

@<SCITEGIC>MOL_PROPERTY
Angle
SciTegic.value.DoubleValue
0.931

@<SCITEGIC>MOL_PROPERTY
Pdih
SciTegic.value.DoubleValue
5.338

@<SCITEGIC>MOL_PROPERTY
Idih
SciTegic.value.DoubleValue
0.000

@<SCITEGIC>MOL_PROPERTY
Tether
SciTegic.value.DoubleValue
0.000

@<TRIPOS>MOLECULE
guest-s16_vm2.mol2 : vm2 ligand conformer 3
          13          13           1
SMALL
USER_CHARGES
 
@<TRIPOS>ATOM
       1    C1      19.717832   18.988807   20.931260 C.3        1 MOL1        -0.1693
       2    H1      18.783519   19.299657   20.445359 H          1 MOL1         0.0829
       3    H2      20.458979   18.765978   20.154427 H          1 MOL1         0.0829
       4    C2      19.545749   17.906423   22.047590 C.3        1 MOL1        -0.1768
       5    H3      20.461850   17.357048   22.297255 H          1 MOL1         0.0829
       6    H4      18.733315   17.186403   21.899900 H          1 MOL1         0.0829
       7    C3      19.224186   19.105730   22.989618 C.3        1 MOL1         0.1211
       8    H5      18.180023   19.443074   22.938485 H          1 MOL1         0.0786
       9    C4      20.196224   19.926063   22.088866 C.3        1 MOL1        -0.1768
      10    H6      21.257717   19.828113   22.347756 H          1 MOL1         0.0829
      11    H7      19.958254   20.989683   21.977626 H          1 MOL1         0.0829
      12    O1      19.629010   18.947977   24.328666 O.3        1 MOL1        -0.5515
      13    H8      20.561918   18.647811   24.311211 H          1 MOL1         0.3773
@<TRIPOS>BOND
    1     1     2    1
    2     1     3    1
    3     1     4    1
    4     4     5    1
    5     4     6    1
    6     4     7    1
    7     7     8    1
    8     1     9    1
    9     7     9    1
   10     9    10    1
   11     9    11    1
   12     7    12    1
   13    12    13    1
@<TRIPOS>SUBSTRUCTURE
       1 MOL1            1 RESIDUE      1      MOL     
@<SCITEGIC>MOL_PROPERTY
VM2 Rank
SciTegic.value.IntegerValue
3

@<SCITEGIC>MOL_PROPERTY
Conf_Id
SciTegic.value.IntegerValue
178

@<SCITEGIC>MOL_PROPERTY
Probability
SciTegic.value.DoubleValue
18.50

@<SCITEGIC>MOL_PROPERTY
Sum Probability
SciTegic.value.DoubleValue
81.94

@<SCITEGIC>MOL_PROPERTY
Delta G
SciTegic.value.DoubleValue
0.327

@<SCITEGIC>MOL_PROPERTY
G
SciTegic.value.DoubleValue
16.881

@<SCITEGIC>MOL_PROPERTY
E
SciTegic.value.DoubleValue
7.062

@<SCITEGIC>MOL_PROPERTY
-TS
SciTegic.value.DoubleValue
9.819

@<SCITEGIC>MOL_PROPERTY
U+W
SciTegic.value.DoubleValue
-2.775

@<SCITEGIC>MOL_PROPERTY
U
SciTegic.value.DoubleValue
-0.184

@<SCITEGIC>MOL_PROPERTY
W
SciTegic.value.DoubleValue
-2.591

@<SCITEGIC>MOL_PROPERTY
W(PB)
SciTegic.value.DoubleValue
-4.184

@<SCITEGIC>MOL_PROPERTY
W(SA)
SciTegic.value.DoubleValue
1.593

@<SCITEGIC>MOL_PROPERTY
Valence
SciTegic.value.DoubleValue
6.840

@<SCITEGIC>MOL_PROPERTY
Coulomb
SciTegic.value.DoubleValue
-7.916

@<SCITEGIC>MOL_PROPERTY
VdW
SciTegic.value.DoubleValue
0.893

@<SCITEGIC>MOL_PROPERTY
VdW6
SciTegic.value.DoubleValue
-2.167

@<SCITEGIC>MOL_PROPERTY
VdW12
SciTegic.value.DoubleValue
3.060

@<SCITEGIC>MOL_PROPERTY
Bond
SciTegic.value.DoubleValue
0.059

@<SCITEGIC>MOL_PROPERTY
Angle
SciTegic.value.DoubleValue
0.918

@<SCITEGIC>MOL_PROPERTY
Pdih
SciTegic.value.DoubleValue
5.862

@<SCITEGIC>MOL_PROPERTY
Idih
SciTegic.value.DoubleValue
0.000

@<SCITEGIC>MOL_PROPERTY
Tether
SciTegic.value.DoubleValue
0.000

@<TRIPOS>MOLECULE
guest-s16_vm2.mol2 : vm2 ligand conformer 4
          13          13           1
SMALL
USER_CHARGES
 
@<TRIPOS>ATOM
       1    C1      20.352096   18.776671   21.318004 C.3        1 MOL1        -0.1693
       2    H1      21.318912   18.457008   21.727123 H          1 MOL1         0.0829
       3    H2      20.422061   18.776498   20.223710 H          1 MOL1         0.0829
       4    C2      19.106977   18.046949   21.924076 C.3        1 MOL1        -0.1768
       5    H3      18.212611   18.073692   21.289719 H          1 MOL1         0.0829
       6    H4      19.266415   17.015457   22.257710 H          1 MOL1         0.0829
       7    C3      19.127565   19.135757   23.041245 C.3        1 MOL1         0.1211
       8    H5      18.137992   19.447080   23.399447 H          1 MOL1         0.0786
       9    C4      19.759224   20.072604   21.965458 C.3        1 MOL1        -0.1768
      10    H6      20.486378   20.804254   22.335112 H          1 MOL1         0.0829
      11    H7      19.024786   20.596034   21.341248 H          1 MOL1         0.0829
      12    O1      19.967138   18.843020   24.137216 O.3        1 MOL1        -0.5515
      13    H8      20.829676   18.572825   23.759940 H          1 MOL1         0.3773
@<TRIPOS>BOND
    1     1     2    1
    2     1     3    1
    3     1     4    1
    4     4     5    1
    5     4     6    1
    6     4     7    1
    7     7     8    1
    8     1     9    1
    9     7     9    1
   10     9    10    1
   11     9    11    1
   12     7    12    1
   13    12    13    1
@<TRIPOS>SUBSTRUCTURE
       1 MOL1            1 RESIDUE      1      MOL     
@<SCITEGIC>MOL_PROPERTY
VM2 Rank
SciTegic.value.IntegerValue
4

@<SCITEGIC>MOL_PROPERTY
Conf_Id
SciTegic.value.IntegerValue
83

@<SCITEGIC>MOL_PROPERTY
Probability
SciTegic.value.DoubleValue
7.49

@<SCITEGIC>MOL_PROPERTY
Sum Probability
SciTegic.value.DoubleValue
89.42

@<SCITEGIC>MOL_PROPERTY
Delta G
SciTegic.value.DoubleValue
0.866

@<SCITEGIC>MOL_PROPERTY
G
SciTegic.value.DoubleValue
17.420

@<SCITEGIC>MOL_PROPERTY
E
SciTegic.value.DoubleValue
7.528

@<SCITEGIC>MOL_PROPERTY
-TS
SciTegic.value.DoubleValue
9.892

@<SCITEGIC>MOL_PROPERTY
U+W
SciTegic.value.DoubleValue
-2.308

@<SCITEGIC>MOL_PROPERTY
U
SciTegic.value.DoubleValue
0.039

@<SCITEGIC>MOL_PROPERTY
W
SciTegic.value.DoubleValue
-2.348

@<SCITEGIC>MOL_PROPERTY
W(PB)
SciTegic.value.DoubleValue
-3.918

@<SCITEGIC>MOL_PROPERTY
W(SA)
SciTegic.value.DoubleValue
1.571

@<SCITEGIC>MOL_PROPERTY
Valence
SciTegic.value.DoubleValue
7.320

@<SCITEGIC>MOL_PROPERTY
Coulomb
SciTegic.value.DoubleValue
-8.530

@<SCITEGIC>MOL_PROPERTY
VdW
SciTegic.value.DoubleValue
1.249

@<SCITEGIC>MOL_PROPERTY
VdW6
SciTegic.value.DoubleValue
-2.615

@<SCITEGIC>MOL_PROPERTY
VdW12
SciTegic.value.DoubleValue
3.864

@<SCITEGIC>MOL_PROPERTY
Bond
SciTegic.value.DoubleValue
0.056

@<SCITEGIC>MOL_PROPERTY
Angle
SciTegic.value.DoubleValue
0.694

@<SCITEGIC>MOL_PROPERTY
Pdih
SciTegic.value.DoubleValue
6.571

@<SCITEGIC>MOL_PROPERTY
Idih
SciTegic.value.DoubleValue
0.000

@<SCITEGIC>MOL_PROPERTY
Tether
SciTegic.value.DoubleValue
0.000

@<TRIPOS>MOLECULE
guest-s16_vm2.mol2 : vm2 ligand conformer 5
          13          13           1
SMALL
USER_CHARGES
 
@<TRIPOS>ATOM
       1    C1      20.354222   18.775867   21.321497 C.3        1 MOL1        -0.1693
       2    H1      20.435535   18.771392   20.228179 H          1 MOL1         0.0829
       3    H2      21.315166   18.457568   21.746325 H          1 MOL1         0.0829
       4    C2      19.105686   18.048204   21.922029 C.3        1 MOL1        -0.1768
       5    H3      18.212888   18.076408   21.285725 H          1 MOL1         0.0829
       6    H4      19.264656   17.017335   22.257336 H          1 MOL1         0.0829
       7    C3      19.128202   19.136100   23.040691 C.3        1 MOL1         0.1211
       8    H5      18.137324   19.445805   23.397140 H          1 MOL1         0.0786
       9    C4      19.757412   20.072738   21.962312 C.3        1 MOL1        -0.1768
      10    H6      20.484471   20.805881   22.328698 H          1 MOL1         0.0829
      11    H7      19.022677   20.592160   21.335145 H          1 MOL1         0.0829
      12    O1      19.967478   18.842092   24.139472 O.3        1 MOL1        -0.5515
      13    H8      20.035815   19.658063   24.679543 H          1 MOL1         0.3773
@<TRIPOS>BOND
    1     1     2    1
    2     1     3    1
    3     1     4    1
    4     4     5    1
    5     4     6    1
    6     4     7    1
    7     7     8    1
    8     1     9    1
    9     7     9    1
   10     9    10    1
   11     9    11    1
   12     7    12    1
   13    12    13    1
@<TRIPOS>SUBSTRUCTURE
       1 MOL1            1 RESIDUE      1      MOL     
@<SCITEGIC>MOL_PROPERTY
VM2 Rank
SciTegic.value.IntegerValue
5

@<SCITEGIC>MOL_PROPERTY
Conf_Id
SciTegic.value.IntegerValue
20

@<SCITEGIC>MOL_PROPERTY
Probability
SciTegic.value.DoubleValue
5.29

@<SCITEGIC>MOL_PROPERTY
Sum Probability
SciTegic.value.DoubleValue
94.72

@<SCITEGIC>MOL_PROPERTY
Delta G
SciTegic.value.DoubleValue
1.073

@<SCITEGIC>MOL_PROPERTY
G
SciTegic.value.DoubleValue
17.627

@<SCITEGIC>MOL_PROPERTY
E
SciTegic.value.DoubleValue
7.736

@<SCITEGIC>MOL_PROPERTY
-TS
SciTegic.value.DoubleValue
9.891

@<SCITEGIC>MOL_PROPERTY
U+W
SciTegic.value.DoubleValue
-2.101

@<SCITEGIC>MOL_PROPERTY
U
SciTegic.value.DoubleValue
0.841

@<SCITEGIC>MOL_PROPERTY
W
SciTegic.value.DoubleValue
-2.942

@<SCITEGIC>MOL_PROPERTY
W(PB)
SciTegic.value.DoubleValue
-4.530

@<SCITEGIC>MOL_PROPERTY
W(SA)
SciTegic.value.DoubleValue
1.587

@<SCITEGIC>MOL_PROPERTY
Valence
SciTegic.value.DoubleValue
6.736

@<SCITEGIC>MOL_PROPERTY
Coulomb
SciTegic.value.DoubleValue
-7.246

@<SCITEGIC>MOL_PROPERTY
VdW
SciTegic.value.DoubleValue
1.352

@<SCITEGIC>MOL_PROPERTY
VdW6
SciTegic.value.DoubleValue
-2.500

@<SCITEGIC>MOL_PROPERTY
VdW12
SciTegic.value.DoubleValue
3.851

@<SCITEGIC>MOL_PROPERTY
Bond
SciTegic.value.DoubleValue
0.063

@<SCITEGIC>MOL_PROPERTY
Angle
SciTegic.value.DoubleValue
0.687

@<SCITEGIC>MOL_PROPERTY
Pdih
SciTegic.value.DoubleValue
5.986

@<SCITEGIC>MOL_PROPERTY
Idih
SciTegic.value.DoubleValue
0.000

@<SCITEGIC>MOL_PROPERTY
Tether
SciTegic.value.DoubleValue
0.000

@<TRIPOS>MOLECULE
guest-s16_vm2.mol2 : vm2 ligand conformer 6
          13          13           1
SMALL
USER_CHARGES
 
@<TRIPOS>ATOM
       1    C1      20.354254   18.775952   21.321505 C.3        1 MOL1        -0.1693
       2    H1      21.315313   18.458022   21.746351 H          1 MOL1         0.0829
       3    H2      20.435947   18.772610   20.228211 H          1 MOL1         0.0829
       4    C2      19.105462   18.048017   21.920946 C.3        1 MOL1        -0.1768
       5    H3      19.263976   17.015488   22.251261 H          1 MOL1         0.0829
       6    H4      18.213228   18.078308   21.283784 H          1 MOL1         0.0829
       7    C3      19.127888   19.135125   23.040670 C.3        1 MOL1         0.1211
       8    H5      18.138218   19.448574   23.397200 H          1 MOL1         0.0786
       9    C4      19.757464   20.072413   21.963380 C.3        1 MOL1        -0.1768
      10    H6      19.023470   20.593810   21.337150 H          1 MOL1         0.0829
      11    H7      20.483852   20.803772   22.334685 H          1 MOL1         0.0829
      12    O1      19.967932   18.843493   24.139498 O.3        1 MOL1        -0.5515
      13    H8      19.541035   18.121574   24.648172 H          1 MOL1         0.3773
@<TRIPOS>BOND
    1     1     2    1
    2     1     3    1
    3     1     4    1
    4     4     5    1
    5     4     6    1
    6     4     7    1
    7     7     8    1
    8     1     9    1
    9     7     9    1
   10     9    10    1
   11     9    11    1
   12     7    12    1
   13    12    13    1
@<TRIPOS>SUBSTRUCTURE
       1 MOL1            1 RESIDUE      1      MOL     
@<SCITEGIC>MOL_PROPERTY
VM2 Rank
SciTegic.value.IntegerValue
6

@<SCITEGIC>MOL_PROPERTY
Conf_Id
SciTegic.value.IntegerValue
189

@<SCITEGIC>MOL_PROPERTY
Probability
SciTegic.value.DoubleValue
5.28

@<SCITEGIC>MOL_PROPERTY
Sum Probability
SciTegic.value.DoubleValue
100.00

@<SCITEGIC>MOL_PROPERTY
Delta G
SciTegic.value.DoubleValue
1.074

@<SCITEGIC>MOL_PROPERTY
G
SciTegic.value.DoubleValue
17.628

@<SCITEGIC>MOL_PROPERTY
E
SciTegic.value.DoubleValue
7.736

@<SCITEGIC>MOL_PROPERTY
-TS
SciTegic.value.DoubleValue
9.892

@<SCITEGIC>MOL_PROPERTY
U+W
SciTegic.value.DoubleValue
-2.100

@<SCITEGIC>MOL_PROPERTY
U
SciTegic.value.DoubleValue
0.841

@<SCITEGIC>MOL_PROPERTY
W
SciTegic.value.DoubleValue
-2.942

@<SCITEGIC>MOL_PROPERTY
W(PB)
SciTegic.value.DoubleValue
-4.526

@<SCITEGIC>MOL_PROPERTY
W(SA)
SciTegic.value.DoubleValue
1.584

@<SCITEGIC>MOL_PROPERTY
Valence
SciTegic.value.DoubleValue
6.736

@<SCITEGIC>MOL_PROPERTY
Coulomb
SciTegic.value.DoubleValue
-7.246

@<SCITEGIC>MOL_PROPERTY
VdW
SciTegic.value.DoubleValue
1.352

@<SCITEGIC>MOL_PROPERTY
VdW6
SciTegic.value.DoubleValue
-2.500

@<SCITEGIC>MOL_PROPERTY
VdW12
SciTegic.value.DoubleValue
3.851

@<SCITEGIC>MOL_PROPERTY
Bond
SciTegic.value.DoubleValue
0.063

@<SCITEGIC>MOL_PROPERTY
Angle
SciTegic.value.DoubleValue
0.687

@<SCITEGIC>MOL_PROPERTY
Pdih
SciTegic.value.DoubleValue
5.986

@<SCITEGIC>MOL_PROPERTY
Idih
SciTegic.value.DoubleValue
0.000

@<SCITEGIC>MOL_PROPERTY
Tether
SciTegic.value.DoubleValue
0.000

