VeraChem MOL file


 13 13  0  0  0  0  0  0  0  0999 V2000     
   19.7184   18.9887   20.9308 C   0  0  0  0  0  0  0  0  0  0  0  0
   18.7845   19.2996   20.4442 H   0  0  0  0  0  0  0  0  0  0  0  0
   20.4604   18.7657   20.1549 H   0  0  0  0  0  0  0  0  0  0  0  0
   19.5460   17.9070   22.0478 C   0  0  0  0  0  0  0  0  0  0  0  0
   20.4632   17.3616   22.3028 H   0  0  0  0  0  0  0  0  0  0  0  0
   18.7360   17.1846   21.8986 H   0  0  0  0  0  0  0  0  0  0  0  0
   19.2226   19.1062   22.9894 C   0  0  0  0  0  0  0  0  0  0  0  0
   18.1791   19.4457   22.9367 H   0  0  0  0  0  0  0  0  0  0  0  0
   20.1960   19.9253   22.0893 C   0  0  0  0  0  0  0  0  0  0  0  0
   21.2554   19.8236   22.3556 H   0  0  0  0  0  0  0  0  0  0  0  0
   19.9609   20.9895   21.9789 H   0  0  0  0  0  0  0  0  0  0  0  0
   19.6301   18.9478   24.3286 O   0  0  0  0  0  0  0  0  0  0  0  0
   19.0296   18.2890   24.7392 H   0  0  0  0  0  0  0  0  0  0  0  0
  1  2  1  0  0  0  0
  1  3  1  0  0  0  0
  1  4  1  0  0  0  0
  4  5  1  0  0  0  0
  4  6  1  0  0  0  0
  4  7  1  0  0  0  0
  7  8  1  0  0  0  0
  1  9  1  0  0  0  0
  7  9  1  0  0  0  0
  9 10  1  0  0  0  0
  9 11  1  0  0  0  0
  7 12  1  0  0  0  0
 12 13  1  0  0  0  0
M  END
> <VM2 Rank>
1

> <Conf_Id>
19

> <Probability>
32.01

> <Sum Probability>
32.01

> <Delta G>
0.000

> <G>
16.554

> <E>
6.694

> <-TS>
9.860

> <U+W>
-3.142

> <U>
-0.154

> <W>
-2.989

> <W(PB)>
-4.588

> <W(SA)>
1.599

> <Valence>
6.334

> <Coulomb>
-7.439

> <VdW>
0.951

> <VdW6>
-2.120

> <VdW12>
3.072

> <Bond>
0.065

> <Angle>
0.930

> <Pdih>
5.339

> <Idih>
0.000

> <Tether>
0.000

$$$$
VeraChem MOL file


 13 13  0  0  0  0  0  0  0  0999 V2000     
   19.7183   18.9886   20.9308 C   0  0  0  0  0  0  0  0  0  0  0  0
   20.4603   18.7653   20.1549 H   0  0  0  0  0  0  0  0  0  0  0  0
   18.7843   19.2992   20.4443 H   0  0  0  0  0  0  0  0  0  0  0  0
   19.5460   17.9071   22.0480 C   0  0  0  0  0  0  0  0  0  0  0  0
   20.4625   17.3617   22.3053 H   0  0  0  0  0  0  0  0  0  0  0  0
   18.7356   17.1849   21.9012 H   0  0  0  0  0  0  0  0  0  0  0  0
   19.2227   19.1063   22.9894 C   0  0  0  0  0  0  0  0  0  0  0  0
   18.1777   19.4415   22.9366 H   0  0  0  0  0  0  0  0  0  0  0  0
   20.1961   19.9254   22.0890 C   0  0  0  0  0  0  0  0  0  0  0  0
   21.2561   19.8234   22.3531 H   0  0  0  0  0  0  0  0  0  0  0  0
   19.9615   20.9896   21.9763 H   0  0  0  0  0  0  0  0  0  0  0  0
   19.6299   18.9475   24.3286 O   0  0  0  0  0  0  0  0  0  0  0  0
   19.5215   19.8171   24.7705 H   0  0  0  0  0  0  0  0  0  0  0  0
  1  2  1  0  0  0  0
  1  3  1  0  0  0  0
  1  4  1  0  0  0  0
  4  5  1  0  0  0  0
  4  6  1  0  0  0  0
  4  7  1  0  0  0  0
  7  8  1  0  0  0  0
  1  9  1  0  0  0  0
  7  9  1  0  0  0  0
  9 10  1  0  0  0  0
  9 11  1  0  0  0  0
  7 12  1  0  0  0  0
 12 13  1  0  0  0  0
M  END
> <VM2 Rank>
2

> <Conf_Id>
130

> <Probability>
31.42

> <Sum Probability>
63.43

> <Delta G>
0.011

> <G>
16.565

> <E>
6.705

> <-TS>
9.860

> <U+W>
-3.131

> <U>
-0.154

> <W>
-2.978

> <W(PB)>
-4.579

> <W(SA)>
1.601

> <Valence>
6.333

> <Coulomb>
-7.439

> <VdW>
0.952

> <VdW6>
-2.120

> <VdW12>
3.072

> <Bond>
0.065

> <Angle>
0.931

> <Pdih>
5.338

> <Idih>
0.000

> <Tether>
0.000

$$$$
VeraChem MOL file


 13 13  0  0  0  0  0  0  0  0999 V2000     
   19.7178   18.9888   20.9313 C   0  0  0  0  0  0  0  0  0  0  0  0
   18.7835   19.2997   20.4454 H   0  0  0  0  0  0  0  0  0  0  0  0
   20.4590   18.7660   20.1544 H   0  0  0  0  0  0  0  0  0  0  0  0
   19.5457   17.9064   22.0476 C   0  0  0  0  0  0  0  0  0  0  0  0
   20.4618   17.3570   22.2973 H   0  0  0  0  0  0  0  0  0  0  0  0
   18.7333   17.1864   21.8999 H   0  0  0  0  0  0  0  0  0  0  0  0
   19.2242   19.1057   22.9896 C   0  0  0  0  0  0  0  0  0  0  0  0
   18.1800   19.4431   22.9385 H   0  0  0  0  0  0  0  0  0  0  0  0
   20.1962   19.9261   22.0889 C   0  0  0  0  0  0  0  0  0  0  0  0
   21.2577   19.8281   22.3478 H   0  0  0  0  0  0  0  0  0  0  0  0
   19.9583   20.9897   21.9776 H   0  0  0  0  0  0  0  0  0  0  0  0
   19.6290   18.9480   24.3287 O   0  0  0  0  0  0  0  0  0  0  0  0
   20.5619   18.6478   24.3112 H   0  0  0  0  0  0  0  0  0  0  0  0
  1  2  1  0  0  0  0
  1  3  1  0  0  0  0
  1  4  1  0  0  0  0
  4  5  1  0  0  0  0
  4  6  1  0  0  0  0
  4  7  1  0  0  0  0
  7  8  1  0  0  0  0
  1  9  1  0  0  0  0
  7  9  1  0  0  0  0
  9 10  1  0  0  0  0
  9 11  1  0  0  0  0
  7 12  1  0  0  0  0
 12 13  1  0  0  0  0
M  END
> <VM2 Rank>
3

> <Conf_Id>
178

> <Probability>
18.50

> <Sum Probability>
81.94

> <Delta G>
0.327

> <G>
16.881

> <E>
7.062

> <-TS>
9.819

> <U+W>
-2.775

> <U>
-0.184

> <W>
-2.591

> <W(PB)>
-4.184

> <W(SA)>
1.593

> <Valence>
6.840

> <Coulomb>
-7.916

> <VdW>
0.893

> <VdW6>
-2.167

> <VdW12>
3.060

> <Bond>
0.059

> <Angle>
0.918

> <Pdih>
5.862

> <Idih>
0.000

> <Tether>
0.000

$$$$
VeraChem MOL file


 13 13  0  0  0  0  0  0  0  0999 V2000     
   20.3521   18.7767   21.3180 C   0  0  0  0  0  0  0  0  0  0  0  0
   21.3189   18.4570   21.7271 H   0  0  0  0  0  0  0  0  0  0  0  0
   20.4221   18.7765   20.2237 H   0  0  0  0  0  0  0  0  0  0  0  0
   19.1070   18.0469   21.9241 C   0  0  0  0  0  0  0  0  0  0  0  0
   18.2126   18.0737   21.2897 H   0  0  0  0  0  0  0  0  0  0  0  0
   19.2664   17.0155   22.2577 H   0  0  0  0  0  0  0  0  0  0  0  0
   19.1276   19.1358   23.0412 C   0  0  0  0  0  0  0  0  0  0  0  0
   18.1380   19.4471   23.3994 H   0  0  0  0  0  0  0  0  0  0  0  0
   19.7592   20.0726   21.9655 C   0  0  0  0  0  0  0  0  0  0  0  0
   20.4864   20.8043   22.3351 H   0  0  0  0  0  0  0  0  0  0  0  0
   19.0248   20.5960   21.3412 H   0  0  0  0  0  0  0  0  0  0  0  0
   19.9671   18.8430   24.1372 O   0  0  0  0  0  0  0  0  0  0  0  0
   20.8297   18.5728   23.7599 H   0  0  0  0  0  0  0  0  0  0  0  0
  1  2  1  0  0  0  0
  1  3  1  0  0  0  0
  1  4  1  0  0  0  0
  4  5  1  0  0  0  0
  4  6  1  0  0  0  0
  4  7  1  0  0  0  0
  7  8  1  0  0  0  0
  1  9  1  0  0  0  0
  7  9  1  0  0  0  0
  9 10  1  0  0  0  0
  9 11  1  0  0  0  0
  7 12  1  0  0  0  0
 12 13  1  0  0  0  0
M  END
> <VM2 Rank>
4

> <Conf_Id>
83

> <Probability>
7.49

> <Sum Probability>
89.42

> <Delta G>
0.866

> <G>
17.420

> <E>
7.528

> <-TS>
9.892

> <U+W>
-2.308

> <U>
0.039

> <W>
-2.348

> <W(PB)>
-3.918

> <W(SA)>
1.571

> <Valence>
7.320

> <Coulomb>
-8.530

> <VdW>
1.249

> <VdW6>
-2.615

> <VdW12>
3.864

> <Bond>
0.056

> <Angle>
0.694

> <Pdih>
6.571

> <Idih>
0.000

> <Tether>
0.000

$$$$
VeraChem MOL file


 13 13  0  0  0  0  0  0  0  0999 V2000     
   20.3542   18.7759   21.3215 C   0  0  0  0  0  0  0  0  0  0  0  0
   20.4355   18.7714   20.2282 H   0  0  0  0  0  0  0  0  0  0  0  0
   21.3152   18.4576   21.7463 H   0  0  0  0  0  0  0  0  0  0  0  0
   19.1057   18.0482   21.9220 C   0  0  0  0  0  0  0  0  0  0  0  0
   18.2129   18.0764   21.2857 H   0  0  0  0  0  0  0  0  0  0  0  0
   19.2647   17.0173   22.2573 H   0  0  0  0  0  0  0  0  0  0  0  0
   19.1282   19.1361   23.0407 C   0  0  0  0  0  0  0  0  0  0  0  0
   18.1373   19.4458   23.3971 H   0  0  0  0  0  0  0  0  0  0  0  0
   19.7574   20.0727   21.9623 C   0  0  0  0  0  0  0  0  0  0  0  0
   20.4845   20.8059   22.3287 H   0  0  0  0  0  0  0  0  0  0  0  0
   19.0227   20.5922   21.3351 H   0  0  0  0  0  0  0  0  0  0  0  0
   19.9675   18.8421   24.1395 O   0  0  0  0  0  0  0  0  0  0  0  0
   20.0358   19.6581   24.6795 H   0  0  0  0  0  0  0  0  0  0  0  0
  1  2  1  0  0  0  0
  1  3  1  0  0  0  0
  1  4  1  0  0  0  0
  4  5  1  0  0  0  0
  4  6  1  0  0  0  0
  4  7  1  0  0  0  0
  7  8  1  0  0  0  0
  1  9  1  0  0  0  0
  7  9  1  0  0  0  0
  9 10  1  0  0  0  0
  9 11  1  0  0  0  0
  7 12  1  0  0  0  0
 12 13  1  0  0  0  0
M  END
> <VM2 Rank>
5

> <Conf_Id>
20

> <Probability>
5.29

> <Sum Probability>
94.72

> <Delta G>
1.073

> <G>
17.627

> <E>
7.736

> <-TS>
9.891

> <U+W>
-2.101

> <U>
0.841

> <W>
-2.942

> <W(PB)>
-4.530

> <W(SA)>
1.587

> <Valence>
6.736

> <Coulomb>
-7.246

> <VdW>
1.352

> <VdW6>
-2.500

> <VdW12>
3.851

> <Bond>
0.063

> <Angle>
0.687

> <Pdih>
5.986

> <Idih>
0.000

> <Tether>
0.000

$$$$
VeraChem MOL file


 13 13  0  0  0  0  0  0  0  0999 V2000     
   20.3543   18.7760   21.3215 C   0  0  0  0  0  0  0  0  0  0  0  0
   21.3153   18.4580   21.7464 H   0  0  0  0  0  0  0  0  0  0  0  0
   20.4359   18.7726   20.2282 H   0  0  0  0  0  0  0  0  0  0  0  0
   19.1055   18.0480   21.9209 C   0  0  0  0  0  0  0  0  0  0  0  0
   19.2640   17.0155   22.2513 H   0  0  0  0  0  0  0  0  0  0  0  0
   18.2132   18.0783   21.2838 H   0  0  0  0  0  0  0  0  0  0  0  0
   19.1279   19.1351   23.0407 C   0  0  0  0  0  0  0  0  0  0  0  0
   18.1382   19.4486   23.3972 H   0  0  0  0  0  0  0  0  0  0  0  0
   19.7575   20.0724   21.9634 C   0  0  0  0  0  0  0  0  0  0  0  0
   19.0235   20.5938   21.3372 H   0  0  0  0  0  0  0  0  0  0  0  0
   20.4839   20.8038   22.3347 H   0  0  0  0  0  0  0  0  0  0  0  0
   19.9679   18.8435   24.1395 O   0  0  0  0  0  0  0  0  0  0  0  0
   19.5410   18.1216   24.6482 H   0  0  0  0  0  0  0  0  0  0  0  0
  1  2  1  0  0  0  0
  1  3  1  0  0  0  0
  1  4  1  0  0  0  0
  4  5  1  0  0  0  0
  4  6  1  0  0  0  0
  4  7  1  0  0  0  0
  7  8  1  0  0  0  0
  1  9  1  0  0  0  0
  7  9  1  0  0  0  0
  9 10  1  0  0  0  0
  9 11  1  0  0  0  0
  7 12  1  0  0  0  0
 12 13  1  0  0  0  0
M  END
> <VM2 Rank>
6

> <Conf_Id>
189

> <Probability>
5.28

> <Sum Probability>
100.00

> <Delta G>
1.074

> <G>
17.628

> <E>
7.736

> <-TS>
9.892

> <U+W>
-2.100

> <U>
0.841

> <W>
-2.942

> <W(PB)>
-4.526

> <W(SA)>
1.584

> <Valence>
6.736

> <Coulomb>
-7.246

> <VdW>
1.352

> <VdW6>
-2.500

> <VdW12>
3.851

> <Bond>
0.063

> <Angle>
0.687

> <Pdih>
5.986

> <Idih>
0.000

> <Tether>
0.000

$$$$
