@<TRIPOS>MOLECULE
CD_guest-s19_fast_vm2_rndm.mol2 : feprocess host+ligand conformer 1
         143         148           2
SMALL
USER_CHARGES
 
@<TRIPOS>ATOM
       1    C1      16.388389   15.625194   22.253671 C.3        1 MOL1         0.2972
       2    H1      15.350176   15.619418   22.604196 H          1 MOL1         0.0751
       3    O1      16.640630   16.692943   21.317690 O.3        1 MOL1        -0.3740
       4    C2      17.357815   15.791574   23.449667 C.3        1 MOL1         0.1003
       5    H2      17.219656   14.918736   24.100465 H          1 MOL1         0.0783
       6    O2      17.051784   16.979500   24.200128 O.3        1 MOL1        -0.5519
       7    H3      17.766347   17.646412   24.022405 H          1 MOL1         0.3769
       8    C3      18.826026   15.790178   22.956185 C.3        1 MOL1         0.1053
       9    H4      18.975530   16.673526   22.322612 H          1 MOL1         0.0783
      10    O3      19.706539   15.843302   24.083979 O.3        1 MOL1        -0.5519
      11    H5      19.670192   16.780024   24.407414 H          1 MOL1         0.3769
      12    C4      19.135270   14.543641   22.086967 C.3        1 MOL1         0.1018
      13    H6      19.241323   13.670336   22.744048 H          1 MOL1         0.0783
      14    C5      18.032339   14.280837   21.021377 C.3        1 MOL1         0.1043
      15    H7      18.127482   15.048628   20.242530 H          1 MOL1         0.0783
      16    O4      16.709332   14.372121   21.610304 O.3        1 MOL1        -0.3740
      17    C6      18.168659   12.905089   20.326190 C.3        1 MOL1         0.0138
      18    H8      19.055095   12.930073   19.677850 H          1 MOL1         0.0794
      19    H9      17.294843   12.751310   19.678980 H          1 MOL1         0.0794
      20    O5      18.287051   11.831442   21.268410 O.3        1 MOL1        -0.5486
      21    H10     18.296096   10.990148   20.761659 H          1 MOL1         0.3769
      22    C7      14.946597   20.195034   20.059391 C.3        1 MOL1         0.2972
      23    H11     14.393550   21.021841   19.595458 H          1 MOL1         0.0751
      24    O6      16.168040   20.648789   20.682176 O.3        1 MOL1        -0.3740
      25    C8      14.085340   19.482775   21.128075 C.3        1 MOL1         0.1003
      26    H12     13.217810   19.055039   20.608703 H          1 MOL1         0.0783
      27    O7      13.619496   20.404794   22.125713 O.3        1 MOL1        -0.5519
      28    H13     14.409322   20.900457   22.461668 H          1 MOL1         0.3769
      29    C9      14.866185   18.314591   21.781800 C.3        1 MOL1         0.1053
      30    H14     15.673051   18.741660   22.394220 H          1 MOL1         0.0783
      31    O8      13.952170   17.590369   22.611804 O.3        1 MOL1        -0.5519
      32    H15     13.513082   18.272804   23.165747 H          1 MOL1         0.3769
      33    C10     15.511023   17.366407   20.724437 C.3        1 MOL1         0.1018
      34    H16     14.758384   16.649061   20.375147 H          1 MOL1         0.0783
      35    C11     16.120352   18.122573   19.509619 C.3        1 MOL1         0.1043
      36    H17     17.071200   18.549112   19.840441 H          1 MOL1         0.0783
      37    O9      15.265062   19.201132   19.065710 O.3        1 MOL1        -0.3740
      38    C12     16.441940   17.210379   18.300717 C.3        1 MOL1         0.0138
      39    H18     17.281728   16.556058   18.568751 H          1 MOL1         0.0794
      40    H19     16.780196   17.843534   17.469855 H          1 MOL1         0.0794
      41    O10     15.319973   16.418812   17.889911 O.3        1 MOL1        -0.5486
      42    H20     15.182554   15.722414   18.566499 H          1 MOL1         0.3769
      43    C13     18.435080   24.053708   21.399072 C.3        1 MOL1         0.2972
      44    H21     18.838338   25.070094   21.494729 H          1 MOL1         0.0751
      45    O11     19.467144   23.056087   21.545292 O.3        1 MOL1        -0.3740
      46    C14     17.314351   23.789595   22.438387 C.3        1 MOL1         0.1003
      47    H22     16.490193   24.475012   22.201049 H          1 MOL1         0.0783
      48    O12     17.749906   24.051309   23.779919 O.3        1 MOL1        -0.5519
      49    H23     18.532430   23.469446   23.952955 H          1 MOL1         0.3769
      50    C15     16.777154   22.343159   22.294993 C.3        1 MOL1         0.1053
      51    H24     17.585269   21.640098   22.543256 H          1 MOL1         0.0783
      52    O13     15.678625   22.161804   23.194124 O.3        1 MOL1        -0.5519
      53    H25     15.984133   22.540872   24.048468 H          1 MOL1         0.3769
      54    C16     16.318707   22.075106   20.837749 C.3        1 MOL1         0.1018
      55    H26     15.371061   22.605601   20.675625 H          1 MOL1         0.0783
      56    C17     17.367824   22.544011   19.789250 C.3        1 MOL1         0.1043
      57    H27     18.220588   21.857000   19.831972 H          1 MOL1         0.0783
      58    O14     17.835065   23.882348   20.097074 O.3        1 MOL1        -0.3740
      59    C18     16.835553   22.527564   18.336474 C.3        1 MOL1         0.0138
      60    H28     16.715575   21.481646   18.022472 H          1 MOL1         0.0794
      61    H29     17.591641   22.980179   17.681156 H          1 MOL1         0.0794
      62    O15     15.586259   23.219268   18.210390 O.3        1 MOL1        -0.5486
      63    H30     15.340992   23.219016   17.259533 H          1 MOL1         0.3769
      64    C19     23.365545   22.274347   22.605951 C.3        1 MOL1         0.2972
      65    H31     24.399777   22.275046   22.972065 H          1 MOL1         0.0751
      66    O16     23.087052   21.105439   21.808976 O.3        1 MOL1        -0.3740
      67    C20     22.384481   22.329505   23.803004 C.3        1 MOL1         0.1003
      68    H32     22.563801   23.284989   24.312718 H          1 MOL1         0.0783
      69    O17     22.619671   21.264333   24.740131 O.3        1 MOL1        -0.5519
      70    H33     22.317205   20.406268   24.338597 H          1 MOL1         0.3769
      71    C21     20.919286   22.330338   23.312926 C.3        1 MOL1         0.1053
      72    H34     20.720386   21.369602   22.832494 H          1 MOL1         0.0783
      73    O18     20.049801   22.496498   24.436157 O.3        1 MOL1        -0.5519
      74    H35     20.321149   21.801161   25.077053 H          1 MOL1         0.3769
      75    C22     20.665203   23.434322   22.255129 C.3        1 MOL1         0.1018
      76    H36     20.558448   24.399754   22.767218 H          1 MOL1         0.0783
      77    C23     21.793207   23.510485   21.184989 C.3        1 MOL1         0.1043
      78    H37     21.666661   22.650274   20.517234 H          1 MOL1         0.0783
      79    O19     23.110806   23.440166   21.792200 O.3        1 MOL1        -0.3740
      80    C24     21.719962   24.782530   20.307518 C.3        1 MOL1         0.0138
      81    H38     20.835689   24.707671   19.659982 H          1 MOL1         0.0794
      82    H39     22.602102   24.809650   19.653924 H          1 MOL1         0.0794
      83    O20     21.645071   25.977512   21.095040 O.3        1 MOL1        -0.5486
      84    H40     21.671869   26.742275   20.479360 H          1 MOL1         0.3769
      85    C25     24.846030   17.785989   20.184714 C.3        1 MOL1         0.2972
      86    H41     25.418276   17.012387   19.656677 H          1 MOL1         0.0751
      87    O21     23.590227   17.272072   20.683124 O.3        1 MOL1        -0.3740
      88    C26     25.660702   18.385472   21.356861 C.3        1 MOL1         0.1003
      89    H42     26.527866   18.894164   20.915692 H          1 MOL1         0.0783
      90    O22     26.133825   17.371861   22.255772 O.3        1 MOL1        -0.5519
      91    H43     25.335900   16.913192   22.622243 H          1 MOL1         0.3769
      92    C27     24.824545   19.449311   22.110178 C.3        1 MOL1         0.1053
      93    H44     23.997184   18.937760   22.623468 H          1 MOL1         0.0783
      94    O23     25.670469   20.091628   23.069613 O.3        1 MOL1        -0.5519
      95    H45     26.108963   19.360926   23.558172 H          1 MOL1         0.3769
      96    C28     24.217064   20.506058   21.141321 C.3        1 MOL1         0.1018
      97    H46     24.987865   21.252428   20.912791 H          1 MOL1         0.0783
      98    C29     23.677414   19.902318   19.807340 C.3        1 MOL1         0.1043
      99    H47     22.711191   19.433662   20.008194 H          1 MOL1         0.0783
     100    O24     24.572439   18.886929   19.293575 O.3        1 MOL1        -0.3740
     101    C30     23.422050   20.945658   18.690659 C.3        1 MOL1         0.0138
     102    H48     22.475269   21.458025   18.898966 H          1 MOL1         0.0794
     103    H49     23.288626   20.409720   17.741473 H          1 MOL1         0.0794
     104    O25     24.476554   21.907863   18.565933 O.3        1 MOL1        -0.5486
     105    H50     24.430065   22.501349   19.346316 H          1 MOL1         0.3769
     106    C31     21.408389   13.842282   21.417687 C.3        1 MOL1         0.2972
     107    H51     21.009953   12.828199   21.550484 H          1 MOL1         0.0751
     108    O26     20.348367   14.823333   21.354374 O.3        1 MOL1        -0.3740
     109    C32     22.407227   14.208723   22.545855 C.3        1 MOL1         0.1003
     110    H52     23.270296   13.539177   22.435321 H          1 MOL1         0.0783
     111    O27     21.848947   14.008489   23.851894 O.3        1 MOL1        -0.5519
     112    H53     21.091565   14.639351   23.941790 H          1 MOL1         0.3769
     113    C33     22.916681   15.660235   22.358333 C.3        1 MOL1         0.1053
     114    H54     22.069100   16.350336   22.475625 H          1 MOL1         0.0783
     115    O28     23.908084   15.936000   23.352392 O.3        1 MOL1        -0.5519
     116    H55     23.486009   15.699928   24.208074 H          1 MOL1         0.3769
     117    C34     23.517159   15.853025   20.938378 C.3        1 MOL1         0.1018
     118    H56     24.510066   15.384508   20.918415 H          1 MOL1         0.0783
     119    C35     22.625570   15.240157   19.817496 C.3        1 MOL1         0.1043
     120    H57     21.751856   15.886755   19.686352 H          1 MOL1         0.0783
     121    O29     22.158818   13.917729   20.186866 O.3        1 MOL1        -0.3740
     122    C36     23.333681   15.153023   18.444731 C.3        1 MOL1         0.0138
     123    H58     23.451403   16.171612   18.050212 H          1 MOL1         0.0794
     124    H59     22.682302   14.607380   17.749000 H          1 MOL1         0.0794
     125    O30     24.613995   14.514935   18.535243 O.3        1 MOL1        -0.5486
     126    H60     24.969212   14.429805   17.623626 H          1 MOL1         0.3769
     127    C1      20.378380   18.816933   23.475675 C.2        1 MOL1         0.6173
     128    O1      21.404209   18.777215   24.125208 O.co2      1 MOL1        -0.6755
     129    O2      19.269834   18.698654   23.965135 O.co2      1 MOL1        -0.6755
     130    C2      20.521731   18.993168   22.009969 C.2        1 MOL1        -0.1504
     131    H1      21.541478   18.972806   21.649962 H          1 MOL1         0.0814
     132    C3      19.495724   19.207327   21.157370 C.2        1 MOL1        -0.1394
     133    H2      18.470211   19.248116   21.522706 H          1 MOL1         0.0817
     134    C4      19.685465   19.447930   19.674383 C.3        1 MOL1        -0.1849
     135    H3      20.397218   20.268976   19.521922 H          1 MOL1         0.0736
     136    H4      18.741791   19.774249   19.223193 H          1 MOL1         0.0736
     137    C5      20.184613   18.183336   18.951131 C.3        1 MOL1        -0.1866
     138    H5      21.178218   17.922988   19.331282 H          1 MOL1         0.0738
     139    H6      19.522341   17.337855   19.180980 H          1 MOL1         0.0738
     140    C6      20.262229   18.387214   17.425945 C.3        1 MOL1        -0.2879
     141    H7      19.274662   18.625346   17.010480 H          1 MOL1         0.0750
     142    H8      20.946940   19.207400   17.174919 H          1 MOL1         0.0750
     143    H9      20.627789   17.477211   16.933232 H          1 MOL1         0.0750
@<TRIPOS>BOND
    1     1     2    1
    2     1     3    1
    3     1     4    1
    4     4     5    1
    5     4     6    1
    6     6     7    1
    7     4     8    1
    8     8     9    1
    9     8    10    1
   10    10    11    1
   11     8    12    1
   12    12    13    1
   13    12    14    1
   14    14    15    1
   15     1    16    1
   16    14    16    1
   17    14    17    1
   18    17    18    1
   19    17    19    1
   20    17    20    1
   21    20    21    1
   22    22    23    1
   23    22    24    1
   24    22    25    1
   25    25    26    1
   26    25    27    1
   27    27    28    1
   28    25    29    1
   29    29    30    1
   30    29    31    1
   31    31    32    1
   32     3    33    1
   33    29    33    1
   34    33    34    1
   35    33    35    1
   36    35    36    1
   37    22    37    1
   38    35    37    1
   39    35    38    1
   40    38    39    1
   41    38    40    1
   42    38    41    1
   43    41    42    1
   44    43    44    1
   45    43    45    1
   46    43    46    1
   47    46    47    1
   48    46    48    1
   49    48    49    1
   50    46    50    1
   51    50    51    1
   52    50    52    1
   53    52    53    1
   54    24    54    1
   55    50    54    1
   56    54    55    1
   57    54    56    1
   58    56    57    1
   59    43    58    1
   60    56    58    1
   61    56    59    1
   62    59    60    1
   63    59    61    1
   64    59    62    1
   65    62    63    1
   66    64    65    1
   67    64    66    1
   68    64    67    1
   69    67    68    1
   70    67    69    1
   71    69    70    1
   72    67    71    1
   73    71    72    1
   74    71    73    1
   75    73    74    1
   76    45    75    1
   77    71    75    1
   78    75    76    1
   79    75    77    1
   80    77    78    1
   81    64    79    1
   82    77    79    1
   83    77    80    1
   84    80    81    1
   85    80    82    1
   86    80    83    1
   87    83    84    1
   88    85    86    1
   89    85    87    1
   90    85    88    1
   91    88    89    1
   92    88    90    1
   93    90    91    1
   94    88    92    1
   95    92    93    1
   96    92    94    1
   97    94    95    1
   98    66    96    1
   99    92    96    1
  100    96    97    1
  101    96    98    1
  102    98    99    1
  103    85   100    1
  104    98   100    1
  105    98   101    1
  106   101   102    1
  107   101   103    1
  108   101   104    1
  109   104   105    1
  110   106   107    1
  111    12   108    1
  112   106   108    1
  113   106   109    1
  114   109   110    1
  115   109   111    1
  116   111   112    1
  117   109   113    1
  118   113   114    1
  119   113   115    1
  120   115   116    1
  121    87   117    1
  122   113   117    1
  123   117   118    1
  124   117   119    1
  125   119   120    1
  126   106   121    1
  127   119   121    1
  128   119   122    1
  129   122   123    1
  130   122   124    1
  131   122   125    1
  132   125   126    1
  133   127   128    1
  134   127   129    2
  135   127   130    1
  136   130   131    1
  137   130   132    2
  138   132   133    1
  139   132   134    1
  140   134   135    1
  141   134   136    1
  142   134   137    1
  143   137   138    1
  144   137   139    1
  145   137   140    1
  146   140   141    1
  147   140   142    1
  148   140   143    1
@<TRIPOS>SUBSTRUCTURE
       1 MOL1            1 RESIDUE      1      MOL     
       2 MOL1          143 RESIDUE      1      MOL     
@<SCITEGIC>MOL_PROPERTY
feprocess Rank
SciTegic.value.IntegerValue
1

@<SCITEGIC>MOL_PROPERTY
Conf_Id
SciTegic.value.IntegerValue
61

@<SCITEGIC>MOL_PROPERTY
Probability
SciTegic.value.DoubleValue
74.75

@<SCITEGIC>MOL_PROPERTY
G
SciTegic.value.DoubleValue
494.785

@<SCITEGIC>MOL_PROPERTY
E
SciTegic.value.DoubleValue
312.454

@<SCITEGIC>MOL_PROPERTY
-TS
SciTegic.value.DoubleValue
182.331

@<SCITEGIC>MOL_PROPERTY
U+W
SciTegic.value.DoubleValue
186.366

@<SCITEGIC>MOL_PROPERTY
U
SciTegic.value.DoubleValue
258.617

@<SCITEGIC>MOL_PROPERTY
W
SciTegic.value.DoubleValue
-72.248

@<SCITEGIC>MOL_PROPERTY
W(PB)
SciTegic.value.DoubleValue
-78.262

@<SCITEGIC>MOL_PROPERTY
W(SA)
SciTegic.value.DoubleValue
6.014

@<SCITEGIC>MOL_PROPERTY
Valence
SciTegic.value.DoubleValue
146.099

@<SCITEGIC>MOL_PROPERTY
Coulomb
SciTegic.value.DoubleValue
135.525

@<SCITEGIC>MOL_PROPERTY
VdW
SciTegic.value.DoubleValue
-23.008

@<SCITEGIC>MOL_PROPERTY
VdW6
SciTegic.value.DoubleValue
-181.970

@<SCITEGIC>MOL_PROPERTY
VdW12
SciTegic.value.DoubleValue
158.962

@<SCITEGIC>MOL_PROPERTY
Bond
SciTegic.value.DoubleValue
5.232

@<SCITEGIC>MOL_PROPERTY
Angle
SciTegic.value.DoubleValue
15.967

@<SCITEGIC>MOL_PROPERTY
Pdih
SciTegic.value.DoubleValue
124.893

@<SCITEGIC>MOL_PROPERTY
Idih
SciTegic.value.DoubleValue
0.007

@<SCITEGIC>MOL_PROPERTY
Tether
SciTegic.value.DoubleValue
0.000

@<TRIPOS>MOLECULE
CD_guest-s19_fast_vm2_rndm.mol2 : feprocess host+ligand conformer 2
         143         148           2
SMALL
USER_CHARGES
 
@<TRIPOS>ATOM
       1    C1      16.259995   15.035406   21.635613 C.3        1 MOL1         0.2972
       2    H1      15.190413   14.855573   21.802616 H          1 MOL1         0.0751
       3    O1      16.583771   16.438132   21.682546 O.3        1 MOL1        -0.3740
       4    C2      17.090459   14.315468   22.723729 C.3        1 MOL1         0.1003
       5    H2      16.900660   13.238541   22.627028 H          1 MOL1         0.0783
       6    O2      16.695438   14.749816   24.034857 O.3        1 MOL1        -0.5519
       7    H3      16.390701   15.688265   23.951143 H          1 MOL1         0.3769
       8    C3      18.601408   14.555511   22.504307 C.3        1 MOL1         0.1053
       9    H4      18.806217   15.619034   22.686197 H          1 MOL1         0.0783
      10    O3      19.340146   13.759242   23.435823 O.3        1 MOL1        -0.5519
      11    H5      18.897844   13.911439   24.301019 H          1 MOL1         0.3769
      12    C4      19.027082   14.214475   21.052127 C.3        1 MOL1         0.1018
      13    H6      19.104867   13.123622   20.953491 H          1 MOL1         0.0783
      14    C5      18.048555   14.785573   19.983835 C.3        1 MOL1         0.1043
      15    H7      18.203982   15.871510   19.934211 H          1 MOL1         0.0783
      16    O4      16.668272   14.524256   20.350293 O.3        1 MOL1        -0.3740
      17    C6      18.294472   14.227243   18.562118 C.3        1 MOL1         0.0138
      18    H8      19.240568   14.639522   18.185642 H          1 MOL1         0.0794
      19    H9      17.495191   14.587636   17.900755 H          1 MOL1         0.0794
      20    O5      18.347775   12.795227   18.545803 O.3        1 MOL1        -0.5486
      21    H10     18.431593   12.510757   17.609622 H          1 MOL1         0.3769
      22    C7      14.797174   20.203954   21.594034 C.3        1 MOL1         0.2972
      23    H11     14.072160   21.026062   21.539160 H          1 MOL1         0.0751
      24    O6      16.149797   20.694683   21.666628 O.3        1 MOL1        -0.3740
      25    C8      14.541486   19.370101   22.873538 C.3        1 MOL1         0.1003
      26    H12     13.516689   18.980610   22.817301 H          1 MOL1         0.0783
      27    O7      14.672601   20.196596   24.041211 O.3        1 MOL1        -0.5519
      28    H13     15.326074   20.903630   23.817057 H          1 MOL1         0.3769
      29    C9      15.508949   18.165390   22.949953 C.3        1 MOL1         0.1053
      30    H14     16.528663   18.548447   23.094236 H          1 MOL1         0.0783
      31    O8      15.144195   17.331082   24.054077 O.3        1 MOL1        -0.5519
      32    H15     15.004023   17.950887   24.804452 H          1 MOL1         0.3769
      33    C10     15.473311   17.350656   21.634654 C.3        1 MOL1         0.1018
      34    H16     14.509020   16.829377   21.573687 H          1 MOL1         0.0783
      35    C11     15.646064   18.256463   20.383909 C.3        1 MOL1         0.1043
      36    H17     16.655310   18.680439   20.404166 H          1 MOL1         0.0783
      37    O9      14.682260   19.339220   20.440053 O.3        1 MOL1        -0.3740
      38    C12     15.508289   17.520059   19.026415 C.3        1 MOL1         0.0138
      39    H18     16.492070   17.118304   18.750424 H          1 MOL1         0.0794
      40    H19     15.234703   18.252945   18.255752 H          1 MOL1         0.0794
      41    O10     14.552106   16.454637   19.054397 O.3        1 MOL1        -0.5486
      42    H20     15.011118   15.672193   19.437039 H          1 MOL1         0.3769
      43    C13     18.491922   23.995681   20.673910 C.3        1 MOL1         0.2972
      44    H21     18.854213   24.963289   20.303878 H          1 MOL1         0.0751
      45    O11     19.572680   23.151182   21.119713 O.3        1 MOL1        -0.3740
      46    C14     17.526335   24.195681   21.870200 C.3        1 MOL1         0.1003
      47    H22     16.677147   24.791722   21.511536 H          1 MOL1         0.0783
      48    O12     18.170942   24.897443   22.945095 O.3        1 MOL1        -0.5519
      49    H23     19.084953   24.525589   23.037633 H          1 MOL1         0.3769
      50    C15     16.978488   22.832298   22.358497 C.3        1 MOL1         0.1053
      51    H24     17.815622   22.253874   22.771801 H          1 MOL1         0.0783
      52    O13     15.988621   23.043769   23.370929 O.3        1 MOL1        -0.5519
      53    H25     16.387989   23.699807   23.984605 H          1 MOL1         0.3769
      54    C16     16.363771   22.033282   21.183266 C.3        1 MOL1         0.1018
      55    H26     15.425486   22.522873   20.891687 H          1 MOL1         0.0783
      56    C17     17.314578   21.968395   19.955463 C.3        1 MOL1         0.1043
      57    H27     18.179225   21.349958   20.222834 H          1 MOL1         0.0783
      58    O14     17.767464   23.305313   19.632411 O.3        1 MOL1        -0.3740
      59    C18     16.685643   21.351226   18.679313 C.3        1 MOL1         0.0138
      60    H28     16.799612   20.262675   18.723200 H          1 MOL1         0.0794
      61    H29     17.257740   21.695201   17.807378 H          1 MOL1         0.0794
      62    O15     15.299611   21.672355   18.517251 O.3        1 MOL1        -0.5486
      63    H30     14.795246   21.030237   19.067063 H          1 MOL1         0.3769
      64    C19     23.691022   22.763499   21.139299 C.3        1 MOL1         0.2972
      65    H31     24.779880   22.870357   21.051775 H          1 MOL1         0.0751
      66    O16     23.311676   21.392146   21.380967 O.3        1 MOL1        -0.3740
      67    C20     23.121624   23.673999   22.259493 C.3        1 MOL1         0.1003
      68    H32     23.295941   24.711925   21.946981 H          1 MOL1         0.0783
      69    O17     23.777381   23.463922   23.518047 O.3        1 MOL1        -0.5519
      70    H33     23.595991   22.528425   23.786707 H          1 MOL1         0.3769
      71    C21     21.591420   23.470856   22.381740 C.3        1 MOL1         0.1053
      72    H34     21.397793   22.437332   22.702530 H          1 MOL1         0.0783
      73    O18     21.064347   24.386693   23.347181 O.3        1 MOL1        -0.5519
      74    H35     21.669061   24.322146   24.119557 H          1 MOL1         0.3769
      75    C22     20.900982   23.700026   21.013298 C.3        1 MOL1         0.1018
      76    H36     20.884515   24.780779   20.820937 H          1 MOL1         0.0783
      77    C23     21.619891   22.972074   19.840170 C.3        1 MOL1         0.1043
      78    H37     21.414152   21.898173   19.923412 H          1 MOL1         0.0783
      79    O19     23.054348   23.181641   19.912766 O.3        1 MOL1        -0.3740
      80    C24     21.127661   23.423581   18.444493 C.3        1 MOL1         0.0138
      81    H38     20.106569   23.046876   18.297478 H          1 MOL1         0.0794
      82    H39     21.761228   22.953276   17.680715 H          1 MOL1         0.0794
      83    O20     21.145679   24.849684   18.299004 O.3        1 MOL1        -0.5486
      84    H40     20.861335   25.058430   17.382606 H          1 MOL1         0.3769
      85    C25     24.531624   17.661661   22.581764 C.3        1 MOL1         0.2972
      86    H41     25.035316   16.769253   22.972392 H          1 MOL1         0.0751
      87    O21     23.347558   17.314072   21.833947 O.3        1 MOL1        -0.3740
      88    C26     24.131207   18.590865   23.754754 C.3        1 MOL1         0.1003
      89    H42     25.057686   18.907143   24.250988 H          1 MOL1         0.0783
      90    O22     23.320656   17.870648   24.699690 O.3        1 MOL1        -0.5519
      91    H43     22.603322   18.471014   25.027899 H          1 MOL1         0.3769
      92    C27     23.422919   19.864228   23.228262 C.3        1 MOL1         0.1053
      93    H44     22.459287   19.569773   22.798427 H          1 MOL1         0.0783
      94    O23     23.217152   20.785900   24.306179 O.3        1 MOL1        -0.5519
      95    H45     22.500814   20.404394   24.877317 H          1 MOL1         0.3769
      96    C28     24.240287   20.559281   22.106894 C.3        1 MOL1         0.1018
      97    H46     25.048716   21.142799   22.566950 H          1 MOL1         0.0783
      98    C29     24.826312   19.563213   21.066273 C.3        1 MOL1         0.1043
      99    H47     23.996354   19.232459   20.433600 H          1 MOL1         0.0783
     100    O24     25.412658   18.404015   21.711171 O.3        1 MOL1        -0.3740
     101    C30     25.883570   20.197590   20.131382 C.3        1 MOL1         0.0138
     102    H48     25.375315   20.902158   19.459133 H          1 MOL1         0.0794
     103    H49     26.319200   19.407163   19.505639 H          1 MOL1         0.0794
     104    O25     26.911345   20.878555   20.861583 O.3        1 MOL1        -0.5486
     105    H50     27.581944   21.188340   20.214313 H          1 MOL1         0.3769
     106    C31     21.351630   14.106709   20.230351 C.3        1 MOL1         0.2972
     107    H51     20.968454   13.231288   19.690331 H          1 MOL1         0.0751
     108    O26     20.290569   14.868944   20.839486 O.3        1 MOL1        -0.3740
     109    C32     22.361598   13.697842   21.329874 C.3        1 MOL1         0.1003
     110    H52     23.215423   13.229273   20.823256 H          1 MOL1         0.0783
     111    O27     21.789686   12.751322   22.245685 O.3        1 MOL1        -0.5519
     112    H53     20.976037   13.168644   22.627362 H          1 MOL1         0.3769
     113    C33     22.886902   14.944229   22.088111 C.3        1 MOL1         0.1053
     114    H54     22.061798   15.354489   22.687642 H          1 MOL1         0.0783
     115    O28     23.952745   14.526426   22.947330 O.3        1 MOL1        -0.5519
     116    H55     23.601419   13.749671   23.435483 H          1 MOL1         0.3769
     117    C34     23.378856   16.061314   21.120450 C.3        1 MOL1         0.1018
     118    H56     24.393561   15.813474   20.785128 H          1 MOL1         0.0783
     119    C35     22.454050   16.256281   19.882704 C.3        1 MOL1         0.1043
     120    H57     21.553228   16.779050   20.221925 H          1 MOL1         0.0783
     121    O29     22.066550   14.976124   19.328210 O.3        1 MOL1        -0.3740
     122    C36     23.060112   17.122988   18.748972 C.3        1 MOL1         0.0138
     123    H58     22.866263   18.178242   18.976236 H          1 MOL1         0.0794
     124    H59     22.522691   16.902232   17.817134 H          1 MOL1         0.0794
     125    O30     24.466324   16.913857   18.565503 O.3        1 MOL1        -0.5486
     126    H60     24.918794   17.215201   19.383082 H          1 MOL1         0.3769
     127    C1      20.087668   19.971540   25.174231 C.2        1 MOL1         0.6173
     128    O1      19.539222   20.847914   25.812013 O.co2      1 MOL1        -0.6755
     129    O2      21.113429   19.424046   25.540444 O.co2      1 MOL1        -0.6755
     130    C2      19.526850   19.641899   23.837121 C.2        1 MOL1        -0.1504
     131    H1      18.684417   20.247111   23.513461 H          1 MOL1         0.0814
     132    C3      20.020383   18.674698   23.032052 C.2        1 MOL1        -0.1394
     133    H2      20.855963   18.050826   23.346951 H          1 MOL1         0.0817
     134    C4      19.500479   18.406772   21.641569 C.3        1 MOL1        -0.1849
     135    H3      18.428556   18.620782   21.603397 H          1 MOL1         0.0736
     136    H4      19.622011   17.346259   21.399417 H          1 MOL1         0.0736
     137    C5      20.243798   19.268626   20.603541 C.3        1 MOL1        -0.1866
     138    H5      20.077687   20.327720   20.834973 H          1 MOL1         0.0738
     139    H6      21.325049   19.099320   20.688723 H          1 MOL1         0.0738
     140    C6      19.782415   18.961626   19.164585 C.3        1 MOL1        -0.2879
     141    H7      19.987275   17.917134   18.898589 H          1 MOL1         0.0750
     142    H8      18.706225   19.128757   19.055200 H          1 MOL1         0.0750
     143    H9      20.303993   19.605746   18.445281 H          1 MOL1         0.0750
@<TRIPOS>BOND
    1     1     2    1
    2     1     3    1
    3     1     4    1
    4     4     5    1
    5     4     6    1
    6     6     7    1
    7     4     8    1
    8     8     9    1
    9     8    10    1
   10    10    11    1
   11     8    12    1
   12    12    13    1
   13    12    14    1
   14    14    15    1
   15     1    16    1
   16    14    16    1
   17    14    17    1
   18    17    18    1
   19    17    19    1
   20    17    20    1
   21    20    21    1
   22    22    23    1
   23    22    24    1
   24    22    25    1
   25    25    26    1
   26    25    27    1
   27    27    28    1
   28    25    29    1
   29    29    30    1
   30    29    31    1
   31    31    32    1
   32     3    33    1
   33    29    33    1
   34    33    34    1
   35    33    35    1
   36    35    36    1
   37    22    37    1
   38    35    37    1
   39    35    38    1
   40    38    39    1
   41    38    40    1
   42    38    41    1
   43    41    42    1
   44    43    44    1
   45    43    45    1
   46    43    46    1
   47    46    47    1
   48    46    48    1
   49    48    49    1
   50    46    50    1
   51    50    51    1
   52    50    52    1
   53    52    53    1
   54    24    54    1
   55    50    54    1
   56    54    55    1
   57    54    56    1
   58    56    57    1
   59    43    58    1
   60    56    58    1
   61    56    59    1
   62    59    60    1
   63    59    61    1
   64    59    62    1
   65    62    63    1
   66    64    65    1
   67    64    66    1
   68    64    67    1
   69    67    68    1
   70    67    69    1
   71    69    70    1
   72    67    71    1
   73    71    72    1
   74    71    73    1
   75    73    74    1
   76    45    75    1
   77    71    75    1
   78    75    76    1
   79    75    77    1
   80    77    78    1
   81    64    79    1
   82    77    79    1
   83    77    80    1
   84    80    81    1
   85    80    82    1
   86    80    83    1
   87    83    84    1
   88    85    86    1
   89    85    87    1
   90    85    88    1
   91    88    89    1
   92    88    90    1
   93    90    91    1
   94    88    92    1
   95    92    93    1
   96    92    94    1
   97    94    95    1
   98    66    96    1
   99    92    96    1
  100    96    97    1
  101    96    98    1
  102    98    99    1
  103    85   100    1
  104    98   100    1
  105    98   101    1
  106   101   102    1
  107   101   103    1
  108   101   104    1
  109   104   105    1
  110   106   107    1
  111    12   108    1
  112   106   108    1
  113   106   109    1
  114   109   110    1
  115   109   111    1
  116   111   112    1
  117   109   113    1
  118   113   114    1
  119   113   115    1
  120   115   116    1
  121    87   117    1
  122   113   117    1
  123   117   118    1
  124   117   119    1
  125   119   120    1
  126   106   121    1
  127   119   121    1
  128   119   122    1
  129   122   123    1
  130   122   124    1
  131   122   125    1
  132   125   126    1
  133   127   128    1
  134   127   129    2
  135   127   130    1
  136   130   131    1
  137   130   132    2
  138   132   133    1
  139   132   134    1
  140   134   135    1
  141   134   136    1
  142   134   137    1
  143   137   138    1
  144   137   139    1
  145   137   140    1
  146   140   141    1
  147   140   142    1
  148   140   143    1
@<TRIPOS>SUBSTRUCTURE
       1 MOL1            1 RESIDUE      1      MOL     
       2 MOL1          143 RESIDUE      1      MOL     
@<SCITEGIC>MOL_PROPERTY
feprocess Rank
SciTegic.value.IntegerValue
2

@<SCITEGIC>MOL_PROPERTY
Conf_Id
SciTegic.value.IntegerValue
49

@<SCITEGIC>MOL_PROPERTY
Probability
SciTegic.value.DoubleValue
7.06

@<SCITEGIC>MOL_PROPERTY
G
SciTegic.value.DoubleValue
496.193

@<SCITEGIC>MOL_PROPERTY
E
SciTegic.value.DoubleValue
314.688

@<SCITEGIC>MOL_PROPERTY
-TS
SciTegic.value.DoubleValue
181.505

@<SCITEGIC>MOL_PROPERTY
U+W
SciTegic.value.DoubleValue
188.600

@<SCITEGIC>MOL_PROPERTY
U
SciTegic.value.DoubleValue
266.956

@<SCITEGIC>MOL_PROPERTY
W
SciTegic.value.DoubleValue
-78.356

@<SCITEGIC>MOL_PROPERTY
W(PB)
SciTegic.value.DoubleValue
-84.371

@<SCITEGIC>MOL_PROPERTY
W(SA)
SciTegic.value.DoubleValue
6.015

@<SCITEGIC>MOL_PROPERTY
Valence
SciTegic.value.DoubleValue
148.748

@<SCITEGIC>MOL_PROPERTY
Coulomb
SciTegic.value.DoubleValue
142.556

@<SCITEGIC>MOL_PROPERTY
VdW
SciTegic.value.DoubleValue
-24.348

@<SCITEGIC>MOL_PROPERTY
VdW6
SciTegic.value.DoubleValue
-179.286

@<SCITEGIC>MOL_PROPERTY
VdW12
SciTegic.value.DoubleValue
154.938

@<SCITEGIC>MOL_PROPERTY
Bond
SciTegic.value.DoubleValue
4.847

@<SCITEGIC>MOL_PROPERTY
Angle
SciTegic.value.DoubleValue
14.093

@<SCITEGIC>MOL_PROPERTY
Pdih
SciTegic.value.DoubleValue
129.788

@<SCITEGIC>MOL_PROPERTY
Idih
SciTegic.value.DoubleValue
0.020

@<SCITEGIC>MOL_PROPERTY
Tether
SciTegic.value.DoubleValue
0.000

@<TRIPOS>MOLECULE
CD_guest-s19_fast_vm2_rndm.mol2 : feprocess host+ligand conformer 3
         143         148           2
SMALL
USER_CHARGES
 
@<TRIPOS>ATOM
       1    C1      16.270304   15.296678   21.613197 C.3        1 MOL1         0.2972
       2    H1      15.204983   15.140397   21.826025 H          1 MOL1         0.0751
       3    O1      16.525090   16.631241   21.132753 O.3        1 MOL1        -0.3740
       4    C2      17.120222   15.038995   22.885211 C.3        1 MOL1         0.1003
       5    H2      16.958063   13.992041   23.172952 H          1 MOL1         0.0783
       6    O2      16.728155   15.887885   23.975684 O.3        1 MOL1        -0.5519
       7    H3      15.898225   16.348977   23.703147 H          1 MOL1         0.3769
       8    C3      18.625580   15.224260   22.588624 C.3        1 MOL1         0.1053
       9    H4      18.794412   16.283807   22.359297 H          1 MOL1         0.0783
      10    O3      19.370333   14.856329   23.753490 O.3        1 MOL1        -0.5519
      11    H5      18.911095   15.318946   24.490631 H          1 MOL1         0.3769
      12    C4      19.071963   14.382066   21.365252 C.3        1 MOL1         0.1018
      13    H6      19.131196   13.327455   21.664714 H          1 MOL1         0.0783
      14    C5      18.096610   14.534591   20.163104 C.3        1 MOL1         0.1043
      15    H7      18.225471   15.543162   19.748816 H          1 MOL1         0.0783
      16    O4      16.721144   14.372985   20.599340 O.3        1 MOL1        -0.3740
      17    C6      18.369273   13.530913   19.017394 C.3        1 MOL1         0.0138
      18    H8      19.308074   13.815145   18.522954 H          1 MOL1         0.0794
      19    H9      17.567390   13.623521   18.272743 H          1 MOL1         0.0794
      20    O5      18.458568   12.180428   19.489409 O.3        1 MOL1        -0.5486
      21    H10     18.552412   11.596504   18.705355 H          1 MOL1         0.3769
      22    C7      14.705782   20.345276   20.870967 C.3        1 MOL1         0.2972
      23    H11     14.053308   21.205872   20.675082 H          1 MOL1         0.0751
      24    O6      16.013179   20.750781   21.324817 O.3        1 MOL1        -0.3740
      25    C8      14.099020   19.427218   21.959903 C.3        1 MOL1         0.1003
      26    H12     13.138945   19.057023   21.577234 H          1 MOL1         0.0783
      27    O7      13.870801   20.150756   23.179774 O.3        1 MOL1        -0.5519
      28    H13     14.689088   20.677044   23.369660 H          1 MOL1         0.3769
      29    C9      15.013405   18.203190   22.219257 C.3        1 MOL1         0.1053
      30    H14     15.943955   18.561782   22.681931 H          1 MOL1         0.0783
      31    O8      14.336740   17.311786   23.111931 O.3        1 MOL1        -0.5519
      32    H15     13.917880   17.898060   23.782958 H          1 MOL1         0.3769
      33    C10     15.380358   17.474766   20.896036 C.3        1 MOL1         0.1018
      34    H16     14.515568   16.891171   20.555956 H          1 MOL1         0.0783
      35    C11     15.802211   18.460287   19.769839 C.3        1 MOL1         0.1043
      36    H17     16.784064   18.874094   20.021812 H          1 MOL1         0.0783
      37    O9      14.855739   19.550507   19.675229 O.3        1 MOL1        -0.3740
      38    C12     15.946796   17.793507   18.379642 C.3        1 MOL1         0.0138
      39    H18     16.859313   17.182176   18.380638 H          1 MOL1         0.0794
      40    H19     16.087029   18.582165   17.628691 H          1 MOL1         0.0794
      41    O10     14.820300   16.978560   18.033365 O.3        1 MOL1        -0.5486
      42    H20     14.878973   16.155625   18.564718 H          1 MOL1         0.3769
      43    C13     18.465854   24.045727   21.847962 C.3        1 MOL1         0.2972
      44    H21     18.896162   25.047653   21.974805 H          1 MOL1         0.0751
      45    O11     19.497936   23.045661   21.748193 O.3        1 MOL1        -0.3740
      46    C14     17.528916   23.722930   23.040482 C.3        1 MOL1         0.1003
      47    H22     16.694636   24.434276   22.984645 H          1 MOL1         0.0783
      48    O12     18.181289   23.900622   24.307051 O.3        1 MOL1        -0.5519
      49    H23     18.911534   23.228814   24.388637 H          1 MOL1         0.3769
      50    C15     16.935754   22.303146   22.898713 C.3        1 MOL1         0.1053
      51    H24     17.756001   21.573250   22.944439 H          1 MOL1         0.0783
      52    O13     16.006662   22.062281   23.960979 O.3        1 MOL1        -0.5519
      53    H25     16.471807   22.354981   24.776690 H          1 MOL1         0.3769
      54    C16     16.218463   22.160401   21.534372 C.3        1 MOL1         0.1018
      55    H26     15.271380   22.714155   21.580543 H          1 MOL1         0.0783
      56    C17     17.081788   22.675982   20.349221 C.3        1 MOL1         0.1043
      57    H27     17.883241   21.944662   20.203038 H          1 MOL1         0.0783
      58    O14     17.670537   23.973401   20.643189 O.3        1 MOL1        -0.3740
      59    C18     16.299704   22.782260   19.017952 C.3        1 MOL1         0.0138
      60    H28     16.073402   21.767648   18.663687 H          1 MOL1         0.0794
      61    H29     16.945343   23.252436   18.264301 H          1 MOL1         0.0794
      62    O15     15.084792   23.527255   19.167547 O.3        1 MOL1        -0.5486
      63    H30     14.670179   23.601927   18.280538 H          1 MOL1         0.3769
      64    C19     23.505164   22.535786   20.781134 C.3        1 MOL1         0.2972
      65    H31     24.521962   22.610998   20.375223 H          1 MOL1         0.0751
      66    O16     23.291144   21.280627   21.450936 O.3        1 MOL1        -0.3740
      67    C20     23.233095   23.676113   21.793607 C.3        1 MOL1         0.1003
      68    H32     23.401885   24.623396   21.265274 H          1 MOL1         0.0783
      69    O17     24.135609   23.588060   22.909197 O.3        1 MOL1        -0.5519
      70    H33     24.078202   22.662775   23.257765 H          1 MOL1         0.3769
      71    C21     21.765472   23.666194   22.294672 C.3        1 MOL1         0.1053
      72    H34     21.655501   22.827751   22.994162 H          1 MOL1         0.0783
      73    O18     21.507898   24.897342   22.977551 O.3        1 MOL1        -0.5519
      74    H35     22.196928   24.959759   23.673945 H          1 MOL1         0.3769
      75    C22     20.735179   23.481805   21.144731 C.3        1 MOL1         0.1018
      76    H36     20.620078   24.444254   20.629429 H          1 MOL1         0.0783
      77    C23     21.163953   22.403014   20.107604 C.3        1 MOL1         0.1043
      78    H37     21.084036   21.415087   20.578469 H          1 MOL1         0.0783
      79    O19     22.536394   22.642670   19.719604 O.3        1 MOL1        -0.3740
      80    C24     20.309677   22.350676   18.813679 C.3        1 MOL1         0.0138
      81    H38     19.512685   21.610530   18.949057 H          1 MOL1         0.0794
      82    H39     20.939579   21.974657   17.996450 H          1 MOL1         0.0794
      83    O20     19.747085   23.617986   18.449874 O.3        1 MOL1        -0.5486
      84    H40     19.092741   23.862014   19.145514 H          1 MOL1         0.3769
      85    C25     25.080719   17.621022   22.089826 C.3        1 MOL1         0.2972
      86    H41     25.763958   16.780469   22.267037 H          1 MOL1         0.0751
      87    O21     23.725045   17.167522   21.914596 O.3        1 MOL1        -0.3740
      88    C26     25.115260   18.582733   23.302429 C.3        1 MOL1         0.1003
      89    H42     26.144080   18.951472   23.405407 H          1 MOL1         0.0783
      90    O22     24.737338   17.882473   24.497473 O.3        1 MOL1        -0.5519
      91    H43     24.080509   17.199733   24.222453 H          1 MOL1         0.3769
      92    C27     24.190307   19.800676   23.073949 C.3        1 MOL1         0.1053
      93    H44     23.151624   19.444850   23.089825 H          1 MOL1         0.0783
      94    O23     24.388268   20.759827   24.119370 O.3        1 MOL1        -0.5519
      95    H45     24.315387   20.246524   24.954000 H          1 MOL1         0.3769
      96    C28     24.454573   20.473225   21.705599 C.3        1 MOL1         0.1018
      97    H46     25.365828   21.080787   21.786507 H          1 MOL1         0.0783
      98    C29     24.588873   19.450594   20.539572 C.3        1 MOL1         0.1043
      99    H47     23.588043   19.051856   20.333539 H          1 MOL1         0.0783
     100    O24     25.468399   18.358404   20.913083 O.3        1 MOL1        -0.3740
     101    C30     25.118887   20.062000   19.220041 C.3        1 MOL1         0.0138
     102    H48     24.330347   20.687872   18.781240 H          1 MOL1         0.0794
     103    H49     25.316940   19.247021   18.510938 H          1 MOL1         0.0794
     104    O25     26.304063   20.840993   19.423929 O.3        1 MOL1        -0.5486
     105    H50     26.633161   21.120112   18.541802 H          1 MOL1         0.3769
     106    C31     21.411783   13.943374   20.701637 C.3        1 MOL1         0.2972
     107    H51     21.017341   12.997122   20.309807 H          1 MOL1         0.0751
     108    O26     20.351772   14.895685   20.939731 O.3        1 MOL1        -0.3740
     109    C32     22.231278   13.715565   22.001389 C.3        1 MOL1         0.1003
     110    H52     23.087799   13.083927   21.732020 H          1 MOL1         0.0783
     111    O27     21.469011   13.044265   23.014852 O.3        1 MOL1        -0.5519
     112    H53     20.733231   13.656261   23.269892 H          1 MOL1         0.3769
     113    C33     22.785153   15.059682   22.532614 C.3        1 MOL1         0.1053
     114    H54     21.935363   15.680776   22.846761 H          1 MOL1         0.0783
     115    O28     23.644199   14.816557   23.651866 O.3        1 MOL1        -0.5519
     116    H55     23.157844   14.176364   24.216858 H          1 MOL1         0.3769
     117    C34     23.565306   15.819833   21.429618 C.3        1 MOL1         0.1018
     118    H56     24.529934   15.315590   21.287167 H          1 MOL1         0.0783
     119    C35     22.801925   15.861708   20.071090 C.3        1 MOL1         0.1043
     120    H57     21.944512   16.533886   20.176803 H          1 MOL1         0.0783
     121    O29     22.320374   14.532936   19.744822 O.3        1 MOL1        -0.3740
     122    C36     23.622246   16.391010   18.865743 C.3        1 MOL1         0.0138
     123    H58     23.460526   17.472271   18.782230 H          1 MOL1         0.0794
     124    H59     23.218943   15.943770   17.947399 H          1 MOL1         0.0794
     125    O30     25.025286   16.120973   18.965307 O.3        1 MOL1        -0.5486
     126    H60     25.397982   16.777423   19.599383 H          1 MOL1         0.3769
     127    C1      19.974988   20.716898   24.929092 C.2        1 MOL1         0.6173
     128    O1      19.690033   19.930541   25.812300 O.co2      1 MOL1        -0.6755
     129    O2      19.984146   21.922994   25.081343 O.co2      1 MOL1        -0.6755
     130    C2      20.299172   20.214732   23.570497 C.2        1 MOL1        -0.1504
     131    H1      20.550341   20.970592   22.837651 H          1 MOL1         0.0814
     132    C3      20.283770   18.916698   23.204221 C.2        1 MOL1        -0.1394
     133    H2      20.028003   18.130098   23.913605 H          1 MOL1         0.0817
     134    C4      20.600930   18.473694   21.796342 C.3        1 MOL1        -0.1849
     135    H3      20.766414   17.392670   21.791030 H          1 MOL1         0.0736
     136    H4      21.531990   18.942702   21.457357 H          1 MOL1         0.0736
     137    C5      19.458082   18.829348   20.827837 C.3        1 MOL1        -0.1866
     138    H5      18.548234   18.318706   21.161751 H          1 MOL1         0.0738
     139    H6      19.249952   19.906112   20.876046 H          1 MOL1         0.0738
     140    C6      19.784033   18.428897   19.375288 C.3        1 MOL1        -0.2879
     141    H7      19.912156   17.342450   19.289730 H          1 MOL1         0.0750
     142    H8      18.973727   18.728866   18.699587 H          1 MOL1         0.0750
     143    H9      20.707738   18.913157   19.033423 H          1 MOL1         0.0750
@<TRIPOS>BOND
    1     1     2    1
    2     1     3    1
    3     1     4    1
    4     4     5    1
    5     4     6    1
    6     6     7    1
    7     4     8    1
    8     8     9    1
    9     8    10    1
   10    10    11    1
   11     8    12    1
   12    12    13    1
   13    12    14    1
   14    14    15    1
   15     1    16    1
   16    14    16    1
   17    14    17    1
   18    17    18    1
   19    17    19    1
   20    17    20    1
   21    20    21    1
   22    22    23    1
   23    22    24    1
   24    22    25    1
   25    25    26    1
   26    25    27    1
   27    27    28    1
   28    25    29    1
   29    29    30    1
   30    29    31    1
   31    31    32    1
   32     3    33    1
   33    29    33    1
   34    33    34    1
   35    33    35    1
   36    35    36    1
   37    22    37    1
   38    35    37    1
   39    35    38    1
   40    38    39    1
   41    38    40    1
   42    38    41    1
   43    41    42    1
   44    43    44    1
   45    43    45    1
   46    43    46    1
   47    46    47    1
   48    46    48    1
   49    48    49    1
   50    46    50    1
   51    50    51    1
   52    50    52    1
   53    52    53    1
   54    24    54    1
   55    50    54    1
   56    54    55    1
   57    54    56    1
   58    56    57    1
   59    43    58    1
   60    56    58    1
   61    56    59    1
   62    59    60    1
   63    59    61    1
   64    59    62    1
   65    62    63    1
   66    64    65    1
   67    64    66    1
   68    64    67    1
   69    67    68    1
   70    67    69    1
   71    69    70    1
   72    67    71    1
   73    71    72    1
   74    71    73    1
   75    73    74    1
   76    45    75    1
   77    71    75    1
   78    75    76    1
   79    75    77    1
   80    77    78    1
   81    64    79    1
   82    77    79    1
   83    77    80    1
   84    80    81    1
   85    80    82    1
   86    80    83    1
   87    83    84    1
   88    85    86    1
   89    85    87    1
   90    85    88    1
   91    88    89    1
   92    88    90    1
   93    90    91    1
   94    88    92    1
   95    92    93    1
   96    92    94    1
   97    94    95    1
   98    66    96    1
   99    92    96    1
  100    96    97    1
  101    96    98    1
  102    98    99    1
  103    85   100    1
  104    98   100    1
  105    98   101    1
  106   101   102    1
  107   101   103    1
  108   101   104    1
  109   104   105    1
  110   106   107    1
  111    12   108    1
  112   106   108    1
  113   106   109    1
  114   109   110    1
  115   109   111    1
  116   111   112    1
  117   109   113    1
  118   113   114    1
  119   113   115    1
  120   115   116    1
  121    87   117    1
  122   113   117    1
  123   117   118    1
  124   117   119    1
  125   119   120    1
  126   106   121    1
  127   119   121    1
  128   119   122    1
  129   122   123    1
  130   122   124    1
  131   122   125    1
  132   125   126    1
  133   127   128    1
  134   127   129    2
  135   127   130    1
  136   130   131    1
  137   130   132    2
  138   132   133    1
  139   132   134    1
  140   134   135    1
  141   134   136    1
  142   134   137    1
  143   137   138    1
  144   137   139    1
  145   137   140    1
  146   140   141    1
  147   140   142    1
  148   140   143    1
@<TRIPOS>SUBSTRUCTURE
       1 MOL1            1 RESIDUE      1      MOL     
       2 MOL1          143 RESIDUE      1      MOL     
@<SCITEGIC>MOL_PROPERTY
feprocess Rank
SciTegic.value.IntegerValue
3

@<SCITEGIC>MOL_PROPERTY
Conf_Id
SciTegic.value.IntegerValue
166

@<SCITEGIC>MOL_PROPERTY
Probability
SciTegic.value.DoubleValue
3.38

@<SCITEGIC>MOL_PROPERTY
G
SciTegic.value.DoubleValue
496.631

@<SCITEGIC>MOL_PROPERTY
E
SciTegic.value.DoubleValue
315.138

@<SCITEGIC>MOL_PROPERTY
-TS
SciTegic.value.DoubleValue
181.493

@<SCITEGIC>MOL_PROPERTY
U+W
SciTegic.value.DoubleValue
189.050

@<SCITEGIC>MOL_PROPERTY
U
SciTegic.value.DoubleValue
272.882

@<SCITEGIC>MOL_PROPERTY
W
SciTegic.value.DoubleValue
-83.832

@<SCITEGIC>MOL_PROPERTY
W(PB)
SciTegic.value.DoubleValue
-89.849

@<SCITEGIC>MOL_PROPERTY
W(SA)
SciTegic.value.DoubleValue
6.017

@<SCITEGIC>MOL_PROPERTY
Valence
SciTegic.value.DoubleValue
147.705

@<SCITEGIC>MOL_PROPERTY
Coulomb
SciTegic.value.DoubleValue
150.858

@<SCITEGIC>MOL_PROPERTY
VdW
SciTegic.value.DoubleValue
-25.681

@<SCITEGIC>MOL_PROPERTY
VdW6
SciTegic.value.DoubleValue
-179.166

@<SCITEGIC>MOL_PROPERTY
VdW12
SciTegic.value.DoubleValue
153.485

@<SCITEGIC>MOL_PROPERTY
Bond
SciTegic.value.DoubleValue
4.834

@<SCITEGIC>MOL_PROPERTY
Angle
SciTegic.value.DoubleValue
14.397

@<SCITEGIC>MOL_PROPERTY
Pdih
SciTegic.value.DoubleValue
128.472

@<SCITEGIC>MOL_PROPERTY
Idih
SciTegic.value.DoubleValue
0.003

@<SCITEGIC>MOL_PROPERTY
Tether
SciTegic.value.DoubleValue
0.000

@<TRIPOS>MOLECULE
CD_guest-s19_fast_vm2_rndm.mol2 : feprocess host+ligand conformer 4
         143         148           2
SMALL
USER_CHARGES
 
@<TRIPOS>ATOM
       1    C1      16.178046   15.240349   20.649211 C.3        1 MOL1         0.2972
       2    H1      15.142560   15.063800   20.330585 H          1 MOL1         0.0751
       3    O1      16.348820   16.549024   21.218554 O.3        1 MOL1        -0.3740
       4    C2      16.609994   14.221386   21.734925 C.3        1 MOL1         0.1003
       5    H2      16.520051   13.217759   21.299413 H          1 MOL1         0.0783
       6    O2      15.760818   14.314731   22.890892 O.3        1 MOL1        -0.5519
       7    H3      15.675077   15.275727   23.116006 H          1 MOL1         0.3769
       8    C3      18.091170   14.439759   22.139114 C.3        1 MOL1         0.1053
       9    H4      18.168771   15.410399   22.648075 H          1 MOL1         0.0783
      10    O3      18.488922   13.392129   23.029811 O.3        1 MOL1        -0.5519
      11    H5      17.727503   13.279155   23.643101 H          1 MOL1         0.3769
      12    C4      19.007570   14.475587   20.886539 C.3        1 MOL1         0.1018
      13    H6      19.075418   13.465869   20.461252 H          1 MOL1         0.0783
      14    C5      18.463997   15.445536   19.805658 C.3        1 MOL1         0.1043
      15    H7      18.524999   16.468402   20.198400 H          1 MOL1         0.0783
      16    O4      17.081233   15.117483   19.527044 O.3        1 MOL1        -0.3740
      17    C6      19.269617   15.429144   18.481814 C.3        1 MOL1         0.0138
      18    H8      20.153771   16.067628   18.609317 H          1 MOL1         0.0794
      19    H9      18.656589   15.883784   17.692410 H          1 MOL1         0.0794
      20    O5      19.682561   14.113153   18.092930 O.3        1 MOL1        -0.5486
      21    H10     20.371828   13.825539   18.731353 H          1 MOL1         0.3769
      22    C7      14.666429   20.244033   21.662906 C.3        1 MOL1         0.2972
      23    H11     14.039489   21.139080   21.767927 H          1 MOL1         0.0751
      24    O6      16.065373   20.580519   21.589700 O.3        1 MOL1        -0.3740
      25    C8      14.455338   19.310485   22.877704 C.3        1 MOL1         0.1003
      26    H12     13.404879   18.991705   22.876125 H          1 MOL1         0.0783
      27    O7      14.741476   20.008772   24.099958 O.3        1 MOL1        -0.5519
      28    H13     15.316497   20.775661   23.859809 H          1 MOL1         0.3769
      29    C9      15.341769   18.051490   22.751575 C.3        1 MOL1         0.1053
      30    H14     16.386787   18.369790   22.853962 H          1 MOL1         0.0783
      31    O8      15.022037   17.126202   23.796205 O.3        1 MOL1        -0.5519
      32    H15     14.999054   17.668916   24.615582 H          1 MOL1         0.3769
      33    C10     15.174078   17.362291   21.374093 C.3        1 MOL1         0.1018
      34    H16     14.253655   16.763864   21.392054 H          1 MOL1         0.0783
      35    C11     15.154083   18.358613   20.178728 C.3        1 MOL1         0.1043
      36    H17     16.185471   18.694742   20.019571 H          1 MOL1         0.0783
      37    O9      14.322115   19.511921   20.469225 O.3        1 MOL1        -0.3740
      38    C12     14.669736   17.729896   18.850348 C.3        1 MOL1         0.0138
      39    H18     15.442473   17.039139   18.487488 H          1 MOL1         0.0794
      40    H19     14.569478   18.526624   18.100977 H          1 MOL1         0.0794
      41    O10     13.427574   17.032600   19.005445 O.3        1 MOL1        -0.5486
      42    H20     13.147460   16.721797   18.116932 H          1 MOL1         0.3769
      43    C13     18.524835   23.888550   20.919829 C.3        1 MOL1         0.2972
      44    H21     18.921649   24.861032   20.601082 H          1 MOL1         0.0751
      45    O11     19.558893   23.034159   21.447328 O.3        1 MOL1        -0.3740
      46    C14     17.450099   24.064492   22.025030 C.3        1 MOL1         0.1003
      47    H22     16.640346   24.672080   21.600623 H          1 MOL1         0.0783
      48    O12     17.988553   24.738670   23.173210 O.3        1 MOL1        -0.5519
      49    H23     18.850180   24.302014   23.397198 H          1 MOL1         0.3769
      50    C15     16.854963   22.692403   22.428886 C.3        1 MOL1         0.1053
      51    H24     17.646816   22.099041   22.907207 H          1 MOL1         0.0783
      52    O13     15.773479   22.886298   23.346640 O.3        1 MOL1        -0.5519
      53    H25     16.102472   23.552542   23.990708 H          1 MOL1         0.3769
      54    C16     16.359916   21.925979   21.177615 C.3        1 MOL1         0.1018
      55    H26     15.472174   22.436777   20.781679 H          1 MOL1         0.0783
      56    C17     17.443252   21.867497   20.065265 C.3        1 MOL1         0.1043
      57    H27     18.283856   21.261864   20.423125 H          1 MOL1         0.0783
      58    O14     17.907413   23.212909   19.800757 O.3        1 MOL1        -0.3740
      59    C18     16.971103   21.233663   18.730700 C.3        1 MOL1         0.0138
      60    H28     17.181003   20.157592   18.764866 H          1 MOL1         0.0794
      61    H29     17.578920   21.645700   17.914195 H          1 MOL1         0.0794
      62    O15     15.579220   21.444993   18.461170 O.3        1 MOL1        -0.5486
      63    H30     15.070327   20.893942   19.100727 H          1 MOL1         0.3769
      64    C19     23.666295   22.795940   21.941811 C.3        1 MOL1         0.2972
      65    H31     24.740308   22.997031   22.042259 H          1 MOL1         0.0751
      66    O16     23.391585   21.377901   21.972147 O.3        1 MOL1        -0.3740
      67    C20     22.902567   23.495320   23.092759 C.3        1 MOL1         0.1003
      68    H32     23.026154   24.576073   22.946187 H          1 MOL1         0.0783
      69    O17     23.459932   23.153618   24.370241 O.3        1 MOL1        -0.5519
      70    H33     23.130488   22.250431   24.619632 H          1 MOL1         0.3769
      71    C21     21.390367   23.179931   22.987347 C.3        1 MOL1         0.1053
      72    H34     21.248562   22.094371   23.062757 H          1 MOL1         0.0783
      73    O18     20.661161   23.838875   24.030421 O.3        1 MOL1        -0.5519
      74    H35     20.911177   23.362207   24.866136 H          1 MOL1         0.3769
      75    C22     20.862985   23.624661   21.602834 C.3        1 MOL1         0.1018
      76    H36     20.824379   24.721861   21.583724 H          1 MOL1         0.0783
      77    C23     21.750448   23.096290   20.438638 C.3        1 MOL1         0.1043
      78    H37     21.583305   22.013785   20.362683 H          1 MOL1         0.0783
      79    O19     23.158893   23.338936   20.703625 O.3        1 MOL1        -0.3740
      80    C24     21.401191   23.720515   19.066030 C.3        1 MOL1         0.0138
      81    H38     20.429901   23.325369   18.739510 H          1 MOL1         0.0794
      82    H39     22.148982   23.395483   18.330528 H          1 MOL1         0.0794
      83    O20     21.349964   25.151644   19.122462 O.3        1 MOL1        -0.5486
      84    H40     21.185863   25.479909   18.211727 H          1 MOL1         0.3769
      85    C25     25.084206   17.705123   20.909703 C.3        1 MOL1         0.2972
      86    H41     25.735890   16.895233   20.557477 H          1 MOL1         0.0751
      87    O21     23.730686   17.243137   21.111140 O.3        1 MOL1        -0.3740
      88    C26     25.629360   18.339838   22.217045 C.3        1 MOL1         0.1003
      89    H42     26.594637   18.802020   21.973880 H          1 MOL1         0.0783
      90    O22     25.846716   17.343781   23.226782 O.3        1 MOL1        -0.5519
      91    H43     24.953171   17.052481   23.535134 H          1 MOL1         0.3769
      92    C27     24.672911   19.468132   22.690090 C.3        1 MOL1         0.1053
      93    H44     23.698869   19.019451   22.926370 H          1 MOL1         0.0783
      94    O23     25.189114   20.120727   23.854847 O.3        1 MOL1        -0.5519
      95    H45     24.388131   20.376087   24.384609 H          1 MOL1         0.3769
      96    C28     24.469458   20.510822   21.556768 C.3        1 MOL1         0.1018
      97    H46     25.410670   21.063055   21.437937 H          1 MOL1         0.0783
      98    C29     24.097604   19.832868   20.202265 C.3        1 MOL1         0.1043
      99    H47     23.089517   19.411694   20.294111 H          1 MOL1         0.0783
     100    O24     25.035663   18.761414   19.927238 O.3        1 MOL1        -0.3740
     101    C30     24.081054   20.766997   18.965463 C.3        1 MOL1         0.0138
     102    H48     23.081171   21.205622   18.871584 H          1 MOL1         0.0794
     103    H49     24.239498   20.155883   18.066887 H          1 MOL1         0.0794
     104    O25     25.061883   21.808032   19.026343 O.3        1 MOL1        -0.5486
     105    H50     24.664852   22.533675   19.562009 H          1 MOL1         0.3769
     106    C31     21.266169   13.998954   21.694037 C.3        1 MOL1         0.2972
     107    H51     20.801762   13.020276   21.870737 H          1 MOL1         0.0751
     108    O26     20.301872   14.977627   21.261522 O.3        1 MOL1        -0.3740
     109    C32     21.937688   14.515608   22.988039 C.3        1 MOL1         0.1003
     110    H52     22.727966   13.801516   23.253843 H          1 MOL1         0.0783
     111    O27     20.994188   14.599175   24.069137 O.3        1 MOL1        -0.5519
     112    H53     20.137564   14.238376   23.734181 H          1 MOL1         0.3769
     113    C33     22.595235   15.892333   22.742828 C.3        1 MOL1         0.1053
     114    H54     21.800165   16.617818   22.534960 H          1 MOL1         0.0783
     115    O28     23.298010   16.275648   23.927132 O.3        1 MOL1        -0.5519
     116    H55     22.650220   16.132259   24.653458 H          1 MOL1         0.3769
     117    C34     23.542404   15.871360   21.514298 C.3        1 MOL1         0.1018
     118    H56     24.486560   15.388995   21.799759 H          1 MOL1         0.0783
     119    C35     22.915349   15.145576   20.287966 C.3        1 MOL1         0.1043
     120    H57     22.148840   15.807583   19.864773 H          1 MOL1         0.0783
     121    O29     22.288604   13.897365   20.681075 O.3        1 MOL1        -0.3740
     122    C36     23.934076   14.851705   19.161034 C.3        1 MOL1         0.0138
     123    H58     24.220619   15.804038   18.694590 H          1 MOL1         0.0794
     124    H59     23.438869   14.246622   18.389789 H          1 MOL1         0.0794
     125    O30     25.101882   14.179430   19.649125 O.3        1 MOL1        -0.5486
     126    H60     25.665435   13.961032   18.874934 H          1 MOL1         0.3769
     127    C1      21.507522   20.825233   25.389238 C.2        1 MOL1         0.6173
     128    O1      22.664614   20.547128   25.127057 O.co2      1 MOL1        -0.6755
     129    O2      21.203266   21.829129   26.004105 O.co2      1 MOL1        -0.6755
     130    C2      20.400152   20.046337   24.773814 C.2        1 MOL1        -0.1504
     131    H1      19.395704   20.415023   24.967440 H          1 MOL1         0.0814
     132    C3      20.588825   18.971044   23.977842 C.2        1 MOL1        -0.1394
     133    H2      21.591815   18.606169   23.766529 H          1 MOL1         0.0817
     134    C4      19.461656   18.239602   23.280524 C.3        1 MOL1        -0.1849
     135    H3      18.579229   18.207985   23.932910 H          1 MOL1         0.0736
     136    H4      19.741100   17.195674   23.096410 H          1 MOL1         0.0736
     137    C5      19.087429   18.923664   21.948428 C.3        1 MOL1        -0.1866
     138    H5      18.233135   18.405937   21.498913 H          1 MOL1         0.0738
     139    H6      18.761639   19.949809   22.159141 H          1 MOL1         0.0738
     140    C6      20.253172   18.948016   20.937847 C.3        1 MOL1        -0.2879
     141    H7      20.628466   17.934912   20.744894 H          1 MOL1         0.0750
     142    H8      19.932172   19.383517   19.983741 H          1 MOL1         0.0750
     143    H9      21.081868   19.554071   21.324496 H          1 MOL1         0.0750
@<TRIPOS>BOND
    1     1     2    1
    2     1     3    1
    3     1     4    1
    4     4     5    1
    5     4     6    1
    6     6     7    1
    7     4     8    1
    8     8     9    1
    9     8    10    1
   10    10    11    1
   11     8    12    1
   12    12    13    1
   13    12    14    1
   14    14    15    1
   15     1    16    1
   16    14    16    1
   17    14    17    1
   18    17    18    1
   19    17    19    1
   20    17    20    1
   21    20    21    1
   22    22    23    1
   23    22    24    1
   24    22    25    1
   25    25    26    1
   26    25    27    1
   27    27    28    1
   28    25    29    1
   29    29    30    1
   30    29    31    1
   31    31    32    1
   32     3    33    1
   33    29    33    1
   34    33    34    1
   35    33    35    1
   36    35    36    1
   37    22    37    1
   38    35    37    1
   39    35    38    1
   40    38    39    1
   41    38    40    1
   42    38    41    1
   43    41    42    1
   44    43    44    1
   45    43    45    1
   46    43    46    1
   47    46    47    1
   48    46    48    1
   49    48    49    1
   50    46    50    1
   51    50    51    1
   52    50    52    1
   53    52    53    1
   54    24    54    1
   55    50    54    1
   56    54    55    1
   57    54    56    1
   58    56    57    1
   59    43    58    1
   60    56    58    1
   61    56    59    1
   62    59    60    1
   63    59    61    1
   64    59    62    1
   65    62    63    1
   66    64    65    1
   67    64    66    1
   68    64    67    1
   69    67    68    1
   70    67    69    1
   71    69    70    1
   72    67    71    1
   73    71    72    1
   74    71    73    1
   75    73    74    1
   76    45    75    1
   77    71    75    1
   78    75    76    1
   79    75    77    1
   80    77    78    1
   81    64    79    1
   82    77    79    1
   83    77    80    1
   84    80    81    1
   85    80    82    1
   86    80    83    1
   87    83    84    1
   88    85    86    1
   89    85    87    1
   90    85    88    1
   91    88    89    1
   92    88    90    1
   93    90    91    1
   94    88    92    1
   95    92    93    1
   96    92    94    1
   97    94    95    1
   98    66    96    1
   99    92    96    1
  100    96    97    1
  101    96    98    1
  102    98    99    1
  103    85   100    1
  104    98   100    1
  105    98   101    1
  106   101   102    1
  107   101   103    1
  108   101   104    1
  109   104   105    1
  110   106   107    1
  111    12   108    1
  112   106   108    1
  113   106   109    1
  114   109   110    1
  115   109   111    1
  116   111   112    1
  117   109   113    1
  118   113   114    1
  119   113   115    1
  120   115   116    1
  121    87   117    1
  122   113   117    1
  123   117   118    1
  124   117   119    1
  125   119   120    1
  126   106   121    1
  127   119   121    1
  128   119   122    1
  129   122   123    1
  130   122   124    1
  131   122   125    1
  132   125   126    1
  133   127   128    1
  134   127   129    2
  135   127   130    1
  136   130   131    1
  137   130   132    2
  138   132   133    1
  139   132   134    1
  140   134   135    1
  141   134   136    1
  142   134   137    1
  143   137   138    1
  144   137   139    1
  145   137   140    1
  146   140   141    1
  147   140   142    1
  148   140   143    1
@<TRIPOS>SUBSTRUCTURE
       1 MOL1            1 RESIDUE      1      MOL     
       2 MOL1          143 RESIDUE      1      MOL     
@<SCITEGIC>MOL_PROPERTY
feprocess Rank
SciTegic.value.IntegerValue
4

@<SCITEGIC>MOL_PROPERTY
Conf_Id
SciTegic.value.IntegerValue
767

@<SCITEGIC>MOL_PROPERTY
Probability
SciTegic.value.DoubleValue
1.91

@<SCITEGIC>MOL_PROPERTY
G
SciTegic.value.DoubleValue
496.973

@<SCITEGIC>MOL_PROPERTY
E
SciTegic.value.DoubleValue
313.436

@<SCITEGIC>MOL_PROPERTY
-TS
SciTegic.value.DoubleValue
183.537

@<SCITEGIC>MOL_PROPERTY
U+W
SciTegic.value.DoubleValue
187.347

@<SCITEGIC>MOL_PROPERTY
U
SciTegic.value.DoubleValue
264.983

@<SCITEGIC>MOL_PROPERTY
W
SciTegic.value.DoubleValue
-77.636

@<SCITEGIC>MOL_PROPERTY
W(PB)
SciTegic.value.DoubleValue
-83.645

@<SCITEGIC>MOL_PROPERTY
W(SA)
SciTegic.value.DoubleValue
6.009

@<SCITEGIC>MOL_PROPERTY
Valence
SciTegic.value.DoubleValue
150.141

@<SCITEGIC>MOL_PROPERTY
Coulomb
SciTegic.value.DoubleValue
138.077

@<SCITEGIC>MOL_PROPERTY
VdW
SciTegic.value.DoubleValue
-23.235

@<SCITEGIC>MOL_PROPERTY
VdW6
SciTegic.value.DoubleValue
-182.168

@<SCITEGIC>MOL_PROPERTY
VdW12
SciTegic.value.DoubleValue
158.933

@<SCITEGIC>MOL_PROPERTY
Bond
SciTegic.value.DoubleValue
5.013

@<SCITEGIC>MOL_PROPERTY
Angle
SciTegic.value.DoubleValue
14.475

@<SCITEGIC>MOL_PROPERTY
Pdih
SciTegic.value.DoubleValue
130.580

@<SCITEGIC>MOL_PROPERTY
Idih
SciTegic.value.DoubleValue
0.072

@<SCITEGIC>MOL_PROPERTY
Tether
SciTegic.value.DoubleValue
0.000

@<TRIPOS>MOLECULE
CD_guest-s19_fast_vm2_rndm.mol2 : feprocess host+ligand conformer 5
         143         148           2
SMALL
USER_CHARGES
 
@<TRIPOS>ATOM
       1    C1      16.321385   15.163331   20.587676 C.3        1 MOL1         0.2972
       2    H1      15.283280   15.032177   20.256708 H          1 MOL1         0.0751
       3    O1      16.635853   16.560357   20.786988 O.3        1 MOL1        -0.3740
       4    C2      16.602499   14.359223   21.888367 C.3        1 MOL1         0.1003
       5    H2      16.466670   13.297878   21.642916 H          1 MOL1         0.0783
       6    O2      15.700227   14.700738   22.950276 O.3        1 MOL1        -0.5519
       7    H3      15.893690   15.640761   23.194745 H          1 MOL1         0.3769
       8    C3      18.071343   14.556618   22.333704 C.3        1 MOL1         0.1053
       9    H4      18.210882   15.611381   22.607799 H          1 MOL1         0.0783
      10    O3      18.353110   13.722234   23.462278 O.3        1 MOL1        -0.5519
      11    H5      17.577698   13.823976   24.057926 H          1 MOL1         0.3769
      12    C4      19.043499   14.221316   21.176410 C.3        1 MOL1         0.1018
      13    H6      19.063472   13.131947   21.042170 H          1 MOL1         0.0783
      14    C5      18.635889   14.895753   19.836141 C.3        1 MOL1         0.1043
      15    H7      18.796218   15.973830   19.931594 H          1 MOL1         0.0783
      16    O4      17.228848   14.651443   19.582895 O.3        1 MOL1        -0.3740
      17    C6      19.465526   14.446385   18.604791 C.3        1 MOL1         0.0138
      18    H8      20.317129   15.130133   18.495678 H          1 MOL1         0.0794
      19    H9      18.847730   14.564633   17.704650 H          1 MOL1         0.0794
      20    O5      19.946751   13.100083   18.699714 O.3        1 MOL1        -0.5486
      21    H10     20.702856   13.109410   19.331193 H          1 MOL1         0.3769
      22    C7      14.966919   20.292734   21.597111 C.3        1 MOL1         0.2972
      23    H11     14.296189   21.118308   21.867010 H          1 MOL1         0.0751
      24    O6      16.189212   20.776644   21.005822 O.3        1 MOL1        -0.3740
      25    C8      15.299603   19.432267   22.845876 C.3        1 MOL1         0.1003
      26    H12     14.347125   19.036369   23.221736 H          1 MOL1         0.0783
      27    O7      15.923779   20.202802   23.884908 O.3        1 MOL1        -0.5519
      28    H13     15.742823   21.153763   23.692075 H          1 MOL1         0.3769
      29    C9      16.198559   18.231743   22.470966 C.3        1 MOL1         0.1053
      30    H14     17.174367   18.622993   22.154290 H          1 MOL1         0.0783
      31    O8      16.359252   17.406542   23.628737 O.3        1 MOL1        -0.5519
      32    H15     16.597912   18.038052   24.344992 H          1 MOL1         0.3769
      33    C10     15.592941   17.416943   21.298554 C.3        1 MOL1         0.1018
      34    H16     14.735984   16.841858   21.672863 H          1 MOL1         0.0783
      35    C11     15.135801   18.334277   20.129472 C.3        1 MOL1         0.1043
      36    H17     16.032721   18.744019   19.646870 H          1 MOL1         0.0783
      37    O9      14.326464   19.427838   20.634660 O.3        1 MOL1        -0.3740
      38    C12     14.327982   17.588598   19.040445 C.3        1 MOL1         0.0138
      39    H18     15.013284   16.929574   18.490296 H          1 MOL1         0.0794
      40    H19     13.940713   18.326578   18.325268 H          1 MOL1         0.0794
      41    O10     13.253254   16.818335   19.594029 O.3        1 MOL1        -0.5486
      42    H20     12.741098   16.441029   18.845829 H          1 MOL1         0.3769
      43    C13     18.498613   24.186992   20.863363 C.3        1 MOL1         0.2972
      44    H21     18.961652   25.169709   20.706072 H          1 MOL1         0.0751
      45    O11     19.466710   23.193688   21.262879 O.3        1 MOL1        -0.3740
      46    C14     17.384641   24.253304   21.936667 C.3        1 MOL1         0.1003
      47    H22     16.595789   24.907770   21.543241 H          1 MOL1         0.0783
      48    O12     17.866418   24.801809   23.172342 O.3        1 MOL1        -0.5519
      49    H23     18.638099   24.249384   23.458132 H          1 MOL1         0.3769
      50    C15     16.768802   22.850221   22.162732 C.3        1 MOL1         0.1053
      51    H24     17.538826   22.206734   22.611988 H          1 MOL1         0.0783
      52    O13     15.659396   22.982806   23.058819 O.3        1 MOL1        -0.5519
      53    H25     15.954199   23.641715   23.728610 H          1 MOL1         0.3769
      54    C16     16.315836   22.202414   20.821741 C.3        1 MOL1         0.1018
      55    H26     15.361883   22.649165   20.515077 H          1 MOL1         0.0783
      56    C17     17.353651   22.384232   19.675508 C.3        1 MOL1         0.1043
      57    H27     18.191842   21.704802   19.861276 H          1 MOL1         0.0783
      58    O14     17.864203   23.738997   19.647599 O.3        1 MOL1        -0.3740
      59    C18     16.798788   22.026983   18.274902 C.3        1 MOL1         0.0138
      60    H28     16.646207   20.940222   18.227056 H          1 MOL1         0.0794
      61    H29     17.560233   22.280259   17.525464 H          1 MOL1         0.0794
      62    O15     15.570968   22.702745   17.975399 O.3        1 MOL1        -0.5486
      63    H30     14.859502   22.266343   18.490924 H          1 MOL1         0.3769
      64    C19     23.419908   22.601109   22.315776 C.3        1 MOL1         0.2972
      65    H31     24.470961   22.683101   22.621600 H          1 MOL1         0.0751
      66    O16     23.093637   21.255651   21.920224 O.3        1 MOL1        -0.3740
      67    C20     22.497228   23.041727   23.479852 C.3        1 MOL1         0.1003
      68    H32     22.688066   24.109968   23.645426 H          1 MOL1         0.0783
      69    O17     22.794848   22.339901   24.695853 O.3        1 MOL1        -0.5519
      70    H33     22.436296   21.413698   24.615752 H          1 MOL1         0.3769
      71    C21     21.011369   22.888550   23.082169 C.3        1 MOL1         0.1053
      72    H34     20.802304   21.824048   22.905975 H          1 MOL1         0.0783
      73    O18     20.184574   23.375168   24.144058 O.3        1 MOL1        -0.5519
      74    H35     20.509398   22.911508   24.948786 H          1 MOL1         0.3769
      75    C22     20.724186   23.673463   21.776526 C.3        1 MOL1         0.1018
      76    H36     20.691991   24.745672   22.011620 H          1 MOL1         0.0783
      77    C23     21.782274   23.398911   20.669577 C.3        1 MOL1         0.1043
      78    H37     21.595217   22.385700   20.298050 H          1 MOL1         0.0783
      79    O19     23.137644   23.465795   21.192637 O.3        1 MOL1        -0.3740
      80    C24     21.672150   24.359517   19.461406 C.3        1 MOL1         0.0138
      81    H38     20.748609   24.126511   18.914054 H          1 MOL1         0.0794
      82    H39     22.511677   24.167654   18.779825 H          1 MOL1         0.0794
      83    O20     21.662833   25.733851   19.866949 O.3        1 MOL1        -0.5486
      84    H40     21.664386   26.284491   19.053758 H          1 MOL1         0.3769
      85    C25     24.832549   17.678824   20.728354 C.3        1 MOL1         0.2972
      86    H41     25.457763   16.886643   20.296867 H          1 MOL1         0.0751
      87    O21     23.568018   17.164350   21.186581 O.3        1 MOL1        -0.3740
      88    C26     25.551778   18.380179   21.909659 C.3        1 MOL1         0.1003
      89    H42     26.473528   18.818688   21.505742 H          1 MOL1         0.0783
      90    O22     25.898645   17.448590   22.946160 O.3        1 MOL1        -0.5519
      91    H43     25.055661   17.029792   23.256071 H          1 MOL1         0.3769
      92    C27     24.693052   19.536185   22.483464 C.3        1 MOL1         0.1053
      93    H44     23.822090   19.101744   22.995502 H          1 MOL1         0.0783
      94    O23     25.491843   20.276055   23.412650 O.3        1 MOL1        -0.5519
      95    H45     25.851960   19.608318   24.035827 H          1 MOL1         0.3769
      96    C28     24.175895   20.481917   21.365355 C.3        1 MOL1         0.1018
      97    H46     25.007506   21.120291   21.040022 H          1 MOL1         0.0783
      98    C29     23.614339   19.712692   20.134579 C.3        1 MOL1         0.1043
      99    H47     22.669182   19.238138   20.425981 H          1 MOL1         0.0783
     100    O24     24.560133   18.690676   19.735830 O.3        1 MOL1        -0.3740
     101    C30     23.305476   20.596605   18.897282 C.3        1 MOL1         0.0138
     102    H48     22.253866   20.903282   18.941652 H          1 MOL1         0.0794
     103    H49     23.408934   19.980704   17.993967 H          1 MOL1         0.0794
     104    O25     24.146020   21.754129   18.798536 O.3        1 MOL1        -0.5486
     105    H50     23.941047   22.334617   19.567946 H          1 MOL1         0.3769
     106    C31     21.353383   13.780374   21.836737 C.3        1 MOL1         0.2972
     107    H51     20.937204   12.781423   22.020110 H          1 MOL1         0.0751
     108    O26     20.325311   14.746700   21.554338 O.3        1 MOL1        -0.3740
     109    C32     22.130716   14.265952   23.081610 C.3        1 MOL1         0.1003
     110    H52     22.972515   13.578928   23.237894 H          1 MOL1         0.0783
     111    O27     21.282822   14.250744   24.241192 O.3        1 MOL1        -0.5519
     112    H53     20.352898   14.344645   23.918584 H          1 MOL1         0.3769
     113    C33     22.704304   15.681634   22.844385 C.3        1 MOL1         0.1053
     114    H54     21.861682   16.382628   22.783149 H          1 MOL1         0.0783
     115    O28     23.547175   16.038456   23.944797 O.3        1 MOL1        -0.5519
     116    H55     23.006398   15.855522   24.745192 H          1 MOL1         0.3769
     117    C34     23.501968   15.764550   21.517090 C.3        1 MOL1         0.1018
     118    H56     24.497700   15.330848   21.678831 H          1 MOL1         0.0783
     119    C35     22.793201   15.055510   20.324266 C.3        1 MOL1         0.1043
     120    H57     21.960619   15.694957   20.005969 H          1 MOL1         0.0783
     121    O29     22.265420   13.762179   20.719952 O.3        1 MOL1        -0.3740
     122    C36     23.703848   14.855588   19.089547 C.3        1 MOL1         0.0138
     123    H58     23.887062   15.835912   18.629206 H          1 MOL1         0.0794
     124    H59     23.165132   14.245390   18.352142 H          1 MOL1         0.0794
     125    O30     24.950732   14.238071   19.431837 O.3        1 MOL1        -0.5486
     126    H60     25.438193   14.067094   18.596568 H          1 MOL1         0.3769
     127    C1      20.559810   19.100896   24.988426 C.2        1 MOL1         0.6173
     128    O1      20.053096   18.749498   26.036383 O.co2      1 MOL1        -0.6755
     129    O2      21.448338   19.930823   24.920709 O.co2      1 MOL1        -0.6755
     130    C2      20.046789   18.484469   23.735929 C.2        1 MOL1        -0.1504
     131    H1      19.239878   17.765210   23.851185 H          1 MOL1         0.0814
     132    C3      20.535032   18.783940   22.512430 C.2        1 MOL1        -0.1394
     133    H2      21.345856   19.498440   22.405023 H          1 MOL1         0.0817
     134    C4      20.026758   18.184100   21.224169 C.3        1 MOL1        -0.1849
     135    H3      19.212515   17.483067   21.437946 H          1 MOL1         0.0736
     136    H4      20.827865   17.610890   20.743092 H          1 MOL1         0.0736
     137    C5      19.523872   19.284536   20.273508 C.3        1 MOL1        -0.1866
     138    H5      18.674158   19.789397   20.747231 H          1 MOL1         0.0738
     139    H6      20.306520   20.041623   20.135137 H          1 MOL1         0.0738
     140    C6      19.100565   18.723918   18.901538 C.3        1 MOL1        -0.2879
     141    H7      19.933964   18.197094   18.419427 H          1 MOL1         0.0750
     142    H8      18.263601   18.022819   19.005501 H          1 MOL1         0.0750
     143    H9      18.781354   19.534519   18.235093 H          1 MOL1         0.0750
@<TRIPOS>BOND
    1     1     2    1
    2     1     3    1
    3     1     4    1
    4     4     5    1
    5     4     6    1
    6     6     7    1
    7     4     8    1
    8     8     9    1
    9     8    10    1
   10    10    11    1
   11     8    12    1
   12    12    13    1
   13    12    14    1
   14    14    15    1
   15     1    16    1
   16    14    16    1
   17    14    17    1
   18    17    18    1
   19    17    19    1
   20    17    20    1
   21    20    21    1
   22    22    23    1
   23    22    24    1
   24    22    25    1
   25    25    26    1
   26    25    27    1
   27    27    28    1
   28    25    29    1
   29    29    30    1
   30    29    31    1
   31    31    32    1
   32     3    33    1
   33    29    33    1
   34    33    34    1
   35    33    35    1
   36    35    36    1
   37    22    37    1
   38    35    37    1
   39    35    38    1
   40    38    39    1
   41    38    40    1
   42    38    41    1
   43    41    42    1
   44    43    44    1
   45    43    45    1
   46    43    46    1
   47    46    47    1
   48    46    48    1
   49    48    49    1
   50    46    50    1
   51    50    51    1
   52    50    52    1
   53    52    53    1
   54    24    54    1
   55    50    54    1
   56    54    55    1
   57    54    56    1
   58    56    57    1
   59    43    58    1
   60    56    58    1
   61    56    59    1
   62    59    60    1
   63    59    61    1
   64    59    62    1
   65    62    63    1
   66    64    65    1
   67    64    66    1
   68    64    67    1
   69    67    68    1
   70    67    69    1
   71    69    70    1
   72    67    71    1
   73    71    72    1
   74    71    73    1
   75    73    74    1
   76    45    75    1
   77    71    75    1
   78    75    76    1
   79    75    77    1
   80    77    78    1
   81    64    79    1
   82    77    79    1
   83    77    80    1
   84    80    81    1
   85    80    82    1
   86    80    83    1
   87    83    84    1
   88    85    86    1
   89    85    87    1
   90    85    88    1
   91    88    89    1
   92    88    90    1
   93    90    91    1
   94    88    92    1
   95    92    93    1
   96    92    94    1
   97    94    95    1
   98    66    96    1
   99    92    96    1
  100    96    97    1
  101    96    98    1
  102    98    99    1
  103    85   100    1
  104    98   100    1
  105    98   101    1
  106   101   102    1
  107   101   103    1
  108   101   104    1
  109   104   105    1
  110   106   107    1
  111    12   108    1
  112   106   108    1
  113   106   109    1
  114   109   110    1
  115   109   111    1
  116   111   112    1
  117   109   113    1
  118   113   114    1
  119   113   115    1
  120   115   116    1
  121    87   117    1
  122   113   117    1
  123   117   118    1
  124   117   119    1
  125   119   120    1
  126   106   121    1
  127   119   121    1
  128   119   122    1
  129   122   123    1
  130   122   124    1
  131   122   125    1
  132   125   126    1
  133   127   128    1
  134   127   129    2
  135   127   130    1
  136   130   131    1
  137   130   132    2
  138   132   133    1
  139   132   134    1
  140   134   135    1
  141   134   136    1
  142   134   137    1
  143   137   138    1
  144   137   139    1
  145   137   140    1
  146   140   141    1
  147   140   142    1
  148   140   143    1
@<TRIPOS>SUBSTRUCTURE
       1 MOL1            1 RESIDUE      1      MOL     
       2 MOL1          143 RESIDUE      1      MOL     
@<SCITEGIC>MOL_PROPERTY
feprocess Rank
SciTegic.value.IntegerValue
5

@<SCITEGIC>MOL_PROPERTY
Conf_Id
SciTegic.value.IntegerValue
669

@<SCITEGIC>MOL_PROPERTY
Probability
SciTegic.value.DoubleValue
1.44

@<SCITEGIC>MOL_PROPERTY
G
SciTegic.value.DoubleValue
497.139

@<SCITEGIC>MOL_PROPERTY
E
SciTegic.value.DoubleValue
315.503

@<SCITEGIC>MOL_PROPERTY
-TS
SciTegic.value.DoubleValue
181.636

@<SCITEGIC>MOL_PROPERTY
U+W
SciTegic.value.DoubleValue
189.414

@<SCITEGIC>MOL_PROPERTY
U
SciTegic.value.DoubleValue
270.971

@<SCITEGIC>MOL_PROPERTY
W
SciTegic.value.DoubleValue
-81.556

@<SCITEGIC>MOL_PROPERTY
W(PB)
SciTegic.value.DoubleValue
-87.559

@<SCITEGIC>MOL_PROPERTY
W(SA)
SciTegic.value.DoubleValue
6.003

@<SCITEGIC>MOL_PROPERTY
Valence
SciTegic.value.DoubleValue
147.128

@<SCITEGIC>MOL_PROPERTY
Coulomb
SciTegic.value.DoubleValue
147.719

@<SCITEGIC>MOL_PROPERTY
VdW
SciTegic.value.DoubleValue
-23.876

@<SCITEGIC>MOL_PROPERTY
VdW6
SciTegic.value.DoubleValue
-179.064

@<SCITEGIC>MOL_PROPERTY
VdW12
SciTegic.value.DoubleValue
155.188

@<SCITEGIC>MOL_PROPERTY
Bond
SciTegic.value.DoubleValue
4.931

@<SCITEGIC>MOL_PROPERTY
Angle
SciTegic.value.DoubleValue
14.581

@<SCITEGIC>MOL_PROPERTY
Pdih
SciTegic.value.DoubleValue
127.615

@<SCITEGIC>MOL_PROPERTY
Idih
SciTegic.value.DoubleValue
0.000

@<SCITEGIC>MOL_PROPERTY
Tether
SciTegic.value.DoubleValue
0.000

@<TRIPOS>MOLECULE
CD_guest-s19_fast_vm2_rndm.mol2 : feprocess host+ligand conformer 6
         143         148           2
SMALL
USER_CHARGES
 
@<TRIPOS>ATOM
       1    C1      16.268445   15.044748   21.560766 C.3        1 MOL1         0.2972
       2    H1      15.198157   14.874519   21.734563 H          1 MOL1         0.0751
       3    O1      16.568359   16.451425   21.409955 O.3        1 MOL1        -0.3740
       4    C2      17.127949   14.450950   22.707668 C.3        1 MOL1         0.1003
       5    H2      17.011440   13.360167   22.670912 H          1 MOL1         0.0783
       6    O2      16.677832   14.910921   23.989490 O.3        1 MOL1        -0.5519
       7    H3      16.807491   15.891411   24.012485 H          1 MOL1         0.3769
       8    C3      18.623521   14.772717   22.450342 C.3        1 MOL1         0.1053
       9    H4      18.745577   15.862834   22.464093 H          1 MOL1         0.0783
      10    O3      19.461994   14.183818   23.453160 O.3        1 MOL1        -0.5519
      11    H5      19.698880   14.923707   24.074990 H          1 MOL1         0.3769
      12    C4      19.056757   14.260894   21.051055 C.3        1 MOL1         0.1018
      13    H6      19.181099   13.171254   21.104393 H          1 MOL1         0.0783
      14    C5      18.043675   14.626154   19.925154 C.3        1 MOL1         0.1043
      15    H7      18.146798   15.695929   19.706357 H          1 MOL1         0.0783
      16    O4      16.682521   14.370388   20.353976 O.3        1 MOL1        -0.3740
      17    C6      18.290738   13.869731   18.598041 C.3        1 MOL1         0.0138
      18    H8      19.205638   14.266075   18.137122 H          1 MOL1         0.0794
      19    H9      17.460841   14.087081   17.912377 H          1 MOL1         0.0794
      20    O5      18.417675   12.455661   18.794665 O.3        1 MOL1        -0.5486
      21    H10     18.488128   12.036914   17.909098 H          1 MOL1         0.3769
      22    C7      15.074656   20.292986   21.833847 C.3        1 MOL1         0.2972
      23    H11     14.468572   21.182138   22.045571 H          1 MOL1         0.0751
      24    O6      16.189740   20.601485   20.971522 O.3        1 MOL1        -0.3740
      25    C8      15.613173   19.670664   23.149644 C.3        1 MOL1         0.1003
      26    H12     14.740875   19.389028   23.753362 H          1 MOL1         0.0783
      27    O7      16.404477   20.615716   23.887270 O.3        1 MOL1        -0.5519
      28    H13     16.115235   21.516784   23.612263 H          1 MOL1         0.3769
      29    C9      16.426124   18.384041   22.857606 C.3        1 MOL1         0.1053
      30    H14     17.335464   18.669061   22.315297 H          1 MOL1         0.0783
      31    O8      16.772577   17.746539   24.090887 O.3        1 MOL1        -0.5519
      32    H15     17.531030   18.264275   24.474296 H          1 MOL1         0.3769
      33    C10     15.628313   17.394301   21.966954 C.3        1 MOL1         0.1018
      34    H16     14.869256   16.899703   22.587349 H          1 MOL1         0.0783
      35    C11     14.950653   18.094946   20.756348 C.3        1 MOL1         0.1043
      36    H17     15.735564   18.369312   20.039157 H          1 MOL1         0.0783
      37    O9      14.260709   19.295548   21.182414 O.3        1 MOL1        -0.3740
      38    C12     13.943823   17.187118   20.009691 C.3        1 MOL1         0.0138
      39    H18     14.506553   16.402098   19.486304 H          1 MOL1         0.0794
      40    H19     13.431531   17.786571   19.245341 H          1 MOL1         0.0794
      41    O10     12.989996   16.589781   20.897682 O.3        1 MOL1        -0.5486
      42    H20     12.350502   16.083627   20.350525 H          1 MOL1         0.3769
      43    C13     18.524781   23.903056   20.060883 C.3        1 MOL1         0.2972
      44    H21     18.973742   24.828942   19.678972 H          1 MOL1         0.0751
      45    O11     19.524784   23.019702   20.616253 O.3        1 MOL1        -0.3740
      46    C14     17.426712   24.197987   21.114747 C.3        1 MOL1         0.1003
      47    H22     16.615645   24.720394   20.590528 H          1 MOL1         0.0783
      48    O12     17.896631   25.043460   22.173860 O.3        1 MOL1        -0.5519
      49    H23     18.585817   24.528574   22.663911 H          1 MOL1         0.3769
      50    C15     16.849882   22.872201   21.670364 C.3        1 MOL1         0.1053
      51    H24     17.655032   22.338593   22.194761 H          1 MOL1         0.0783
      52    O13     15.794651   23.189568   22.585851 O.3        1 MOL1        -0.5519
      53    H25     16.106655   23.992627   23.062663 H          1 MOL1         0.3769
      54    C16     16.335630   21.963985   20.513525 C.3        1 MOL1         0.1018
      55    H26     15.379209   22.359783   20.150095 H          1 MOL1         0.0783
      56    C17     17.344421   21.886105   19.330460 C.3        1 MOL1         0.1043
      57    H27     18.181680   21.255296   19.649230 H          1 MOL1         0.0783
      58    O14     17.858238   23.199300   18.991194 O.3        1 MOL1        -0.3740
      59    C18     16.756796   21.234219   18.054680 C.3        1 MOL1         0.0138
      60    H28     16.626615   20.159429   18.240555 H          1 MOL1         0.0794
      61    H29     17.490756   21.334621   17.244268 H          1 MOL1         0.0794
      62    O15     15.507153   21.814661   17.660464 O.3        1 MOL1        -0.5486
      63    H30     14.823835   21.499832   18.290030 H          1 MOL1         0.3769
      64    C19     23.308726   22.784531   22.297784 C.3        1 MOL1         0.2972
      65    H31     24.296747   22.972429   22.736727 H          1 MOL1         0.0751
      66    O16     23.115111   21.391009   21.984117 O.3        1 MOL1        -0.3740
      67    C20     22.195137   23.233942   23.274737 C.3        1 MOL1         0.1003
      68    H32     22.296903   24.318848   23.408552 H          1 MOL1         0.0783
      69    O17     22.324335   22.596653   24.554580 O.3        1 MOL1        -0.5519
      70    H33     22.793133   21.737064   24.410596 H          1 MOL1         0.3769
      71    C21     20.799456   22.964388   22.668860 C.3        1 MOL1         0.1053
      72    H34     20.674059   21.879268   22.561150 H          1 MOL1         0.0783
      73    O18     19.811871   23.478202   23.566023 O.3        1 MOL1        -0.5519
      74    H35     20.078357   23.135375   24.449097 H          1 MOL1         0.3769
      75    C22     20.667363   23.615977   21.265664 C.3        1 MOL1         0.1018
      76    H36     20.550109   24.700818   21.387911 H          1 MOL1         0.0783
      77    C23     21.898714   23.315095   20.360926 C.3        1 MOL1         0.1043
      78    H37     21.847170   22.259627   20.062780 H          1 MOL1         0.0783
      79    O19     23.141068   23.540425   21.079736 O.3        1 MOL1        -0.3740
      80    C24     21.923668   24.155358   19.061993 C.3        1 MOL1         0.0138
      81    H38     21.115570   23.804355   18.405853 H          1 MOL1         0.0794
      82    H39     22.872282   23.967737   18.541369 H          1 MOL1         0.0794
      83    O20     21.764897   25.556128   19.320744 O.3        1 MOL1        -0.5486
      84    H40     21.863911   26.029979   18.466255 H          1 MOL1         0.3769
      85    C25     24.944833   17.663059   22.002091 C.3        1 MOL1         0.2972
      86    H41     25.654406   16.825791   22.026818 H          1 MOL1         0.0751
      87    O21     23.600028   17.204728   21.767730 O.3        1 MOL1        -0.3740
      88    C26     24.959680   18.402946   23.361258 C.3        1 MOL1         0.1003
      89    H42     25.977054   18.783561   23.520124 H          1 MOL1         0.0783
      90    O22     24.618772   17.502191   24.425636 O.3        1 MOL1        -0.5519
      91    H43     23.939230   16.887379   24.062833 H          1 MOL1         0.3769
      92    C27     23.992836   19.609996   23.347438 C.3        1 MOL1         0.1053
      93    H44     22.964226   19.229032   23.276944 H          1 MOL1         0.0783
      94    O23     24.157516   20.346119   24.561702 O.3        1 MOL1        -0.5519
      95    H45     24.180375   19.663626   25.269935 H          1 MOL1         0.3769
      96    C28     24.257799   20.525559   22.126270 C.3        1 MOL1         0.1018
      97    H46     25.187104   21.085467   22.292170 H          1 MOL1         0.0783
      98    C29     24.371819   19.718164   20.805512 C.3        1 MOL1         0.1043
      99    H47     23.378450   19.321511   20.580653 H          1 MOL1         0.0783
     100    O24     25.292271   18.607649   20.964461 O.3        1 MOL1        -0.3740
     101    C30     24.802356   20.565684   19.582558 C.3        1 MOL1         0.0138
     102    H48     23.940746   21.159608   19.249483 H          1 MOL1         0.0794
     103    H49     25.063217   19.886481   18.760047 H          1 MOL1         0.0794
     104    O25     25.902451   21.436329   19.869575 O.3        1 MOL1        -0.5486
     105    H50     25.537309   22.225505   20.325424 H          1 MOL1         0.3769
     106    C31     21.350312   14.125750   20.169600 C.3        1 MOL1         0.2972
     107    H51     20.952973   13.256077   19.630846 H          1 MOL1         0.0751
     108    O26     20.293440   14.928125   20.735126 O.3        1 MOL1        -0.3740
     109    C32     22.325122   13.691392   21.296024 C.3        1 MOL1         0.1003
     110    H52     23.165019   13.175337   20.812969 H          1 MOL1         0.0783
     111    O27     21.701772   12.791784   22.225337 O.3        1 MOL1        -0.5519
     112    H53     20.937835   13.274994   22.630592 H          1 MOL1         0.3769
     113    C33     22.890584   14.930084   22.032978 C.3        1 MOL1         0.1053
     114    H54     22.068077   15.399052   22.589374 H          1 MOL1         0.0783
     115    O28     23.911212   14.515310   22.946230 O.3        1 MOL1        -0.5519
     116    H55     23.525578   13.758202   23.439618 H          1 MOL1         0.3769
     117    C34     23.470431   15.970583   21.037688 C.3        1 MOL1         0.1018
     118    H56     24.439645   15.599000   20.680430 H          1 MOL1         0.0783
     119    C35     22.540810   16.232197   19.816020 C.3        1 MOL1         0.1043
     120    H57     21.665953   16.795489   20.161795 H          1 MOL1         0.0783
     121    O29     22.102019   14.965311   19.267213 O.3        1 MOL1        -0.3740
     122    C36     23.177325   17.063538   18.670692 C.3        1 MOL1         0.0138
     123    H58     22.939216   18.121287   18.832434 H          1 MOL1         0.0794
     124    H59     22.696148   16.778387   17.725578 H          1 MOL1         0.0794
     125    O30     24.596882   16.901017   18.564278 O.3        1 MOL1        -0.5486
     126    H60     25.002730   17.391055   19.317148 H          1 MOL1         0.3769
     127    C1      20.038632   17.672548   24.241116 C.2        1 MOL1         0.6173
     128    O1      20.395455   16.578756   24.638098 O.co2      1 MOL1        -0.6755
     129    O2      19.382761   18.449811   24.909583 O.co2      1 MOL1        -0.6755
     130    C2      20.343581   18.006073   22.825173 C.2        1 MOL1        -0.1504
     131    H1      20.892374   17.250961   22.274696 H          1 MOL1         0.0814
     132    C3      19.952804   19.139999   22.203846 C.2        1 MOL1        -0.1394
     133    H2      19.383836   19.903911   22.733729 H          1 MOL1         0.0817
     134    C4      20.229131   19.410070   20.742871 C.3        1 MOL1        -0.1849
     135    H3      21.260927   19.136406   20.507147 H          1 MOL1         0.0736
     136    H4      20.136861   20.481716   20.537852 H          1 MOL1         0.0736
     137    C5      19.269443   18.614292   19.836147 C.3        1 MOL1        -0.1866
     138    H5      19.354039   17.545673   20.068507 H          1 MOL1         0.0738
     139    H6      18.232707   18.901078   20.054260 H          1 MOL1         0.0738
     140    C6      19.571213   18.839488   18.341352 C.3        1 MOL1        -0.2879
     141    H7      19.517877   19.904527   18.083408 H          1 MOL1         0.0750
     142    H8      20.574509   18.478271   18.085807 H          1 MOL1         0.0750
     143    H9      18.848533   18.299385   17.716552 H          1 MOL1         0.0750
@<TRIPOS>BOND
    1     1     2    1
    2     1     3    1
    3     1     4    1
    4     4     5    1
    5     4     6    1
    6     6     7    1
    7     4     8    1
    8     8     9    1
    9     8    10    1
   10    10    11    1
   11     8    12    1
   12    12    13    1
   13    12    14    1
   14    14    15    1
   15     1    16    1
   16    14    16    1
   17    14    17    1
   18    17    18    1
   19    17    19    1
   20    17    20    1
   21    20    21    1
   22    22    23    1
   23    22    24    1
   24    22    25    1
   25    25    26    1
   26    25    27    1
   27    27    28    1
   28    25    29    1
   29    29    30    1
   30    29    31    1
   31    31    32    1
   32     3    33    1
   33    29    33    1
   34    33    34    1
   35    33    35    1
   36    35    36    1
   37    22    37    1
   38    35    37    1
   39    35    38    1
   40    38    39    1
   41    38    40    1
   42    38    41    1
   43    41    42    1
   44    43    44    1
   45    43    45    1
   46    43    46    1
   47    46    47    1
   48    46    48    1
   49    48    49    1
   50    46    50    1
   51    50    51    1
   52    50    52    1
   53    52    53    1
   54    24    54    1
   55    50    54    1
   56    54    55    1
   57    54    56    1
   58    56    57    1
   59    43    58    1
   60    56    58    1
   61    56    59    1
   62    59    60    1
   63    59    61    1
   64    59    62    1
   65    62    63    1
   66    64    65    1
   67    64    66    1
   68    64    67    1
   69    67    68    1
   70    67    69    1
   71    69    70    1
   72    67    71    1
   73    71    72    1
   74    71    73    1
   75    73    74    1
   76    45    75    1
   77    71    75    1
   78    75    76    1
   79    75    77    1
   80    77    78    1
   81    64    79    1
   82    77    79    1
   83    77    80    1
   84    80    81    1
   85    80    82    1
   86    80    83    1
   87    83    84    1
   88    85    86    1
   89    85    87    1
   90    85    88    1
   91    88    89    1
   92    88    90    1
   93    90    91    1
   94    88    92    1
   95    92    93    1
   96    92    94    1
   97    94    95    1
   98    66    96    1
   99    92    96    1
  100    96    97    1
  101    96    98    1
  102    98    99    1
  103    85   100    1
  104    98   100    1
  105    98   101    1
  106   101   102    1
  107   101   103    1
  108   101   104    1
  109   104   105    1
  110   106   107    1
  111    12   108    1
  112   106   108    1
  113   106   109    1
  114   109   110    1
  115   109   111    1
  116   111   112    1
  117   109   113    1
  118   113   114    1
  119   113   115    1
  120   115   116    1
  121    87   117    1
  122   113   117    1
  123   117   118    1
  124   117   119    1
  125   119   120    1
  126   106   121    1
  127   119   121    1
  128   119   122    1
  129   122   123    1
  130   122   124    1
  131   122   125    1
  132   125   126    1
  133   127   128    1
  134   127   129    2
  135   127   130    1
  136   130   131    1
  137   130   132    2
  138   132   133    1
  139   132   134    1
  140   134   135    1
  141   134   136    1
  142   134   137    1
  143   137   138    1
  144   137   139    1
  145   137   140    1
  146   140   141    1
  147   140   142    1
  148   140   143    1
@<TRIPOS>SUBSTRUCTURE
       1 MOL1            1 RESIDUE      1      MOL     
       2 MOL1          143 RESIDUE      1      MOL     
@<SCITEGIC>MOL_PROPERTY
feprocess Rank
SciTegic.value.IntegerValue
6

@<SCITEGIC>MOL_PROPERTY
Conf_Id
SciTegic.value.IntegerValue
405

@<SCITEGIC>MOL_PROPERTY
Probability
SciTegic.value.DoubleValue
1.15

@<SCITEGIC>MOL_PROPERTY
G
SciTegic.value.DoubleValue
497.274

@<SCITEGIC>MOL_PROPERTY
E
SciTegic.value.DoubleValue
314.306

@<SCITEGIC>MOL_PROPERTY
-TS
SciTegic.value.DoubleValue
182.967

@<SCITEGIC>MOL_PROPERTY
U+W
SciTegic.value.DoubleValue
188.218

@<SCITEGIC>MOL_PROPERTY
U
SciTegic.value.DoubleValue
268.402

@<SCITEGIC>MOL_PROPERTY
W
SciTegic.value.DoubleValue
-80.184

@<SCITEGIC>MOL_PROPERTY
W(PB)
SciTegic.value.DoubleValue
-86.168

@<SCITEGIC>MOL_PROPERTY
W(SA)
SciTegic.value.DoubleValue
5.984

@<SCITEGIC>MOL_PROPERTY
Valence
SciTegic.value.DoubleValue
148.514

@<SCITEGIC>MOL_PROPERTY
Coulomb
SciTegic.value.DoubleValue
144.322

@<SCITEGIC>MOL_PROPERTY
VdW
SciTegic.value.DoubleValue
-24.434

@<SCITEGIC>MOL_PROPERTY
VdW6
SciTegic.value.DoubleValue
-183.850

@<SCITEGIC>MOL_PROPERTY
VdW12
SciTegic.value.DoubleValue
159.416

@<SCITEGIC>MOL_PROPERTY
Bond
SciTegic.value.DoubleValue
5.101

@<SCITEGIC>MOL_PROPERTY
Angle
SciTegic.value.DoubleValue
14.995

@<SCITEGIC>MOL_PROPERTY
Pdih
SciTegic.value.DoubleValue
128.396

@<SCITEGIC>MOL_PROPERTY
Idih
SciTegic.value.DoubleValue
0.021

@<SCITEGIC>MOL_PROPERTY
Tether
SciTegic.value.DoubleValue
0.000

@<TRIPOS>MOLECULE
CD_guest-s19_fast_vm2_rndm.mol2 : feprocess host+ligand conformer 7
         143         148           2
SMALL
USER_CHARGES
 
@<TRIPOS>ATOM
       1    C1      16.337029   15.201043   20.578951 C.3        1 MOL1         0.2972
       2    H1      15.304568   15.071722   20.230115 H          1 MOL1         0.0751
       3    O1      16.636008   16.592142   20.826150 O.3        1 MOL1        -0.3740
       4    C2      16.606958   14.360455   21.859380 C.3        1 MOL1         0.1003
       5    H2      16.461596   13.307286   21.585902 H          1 MOL1         0.0783
       6    O2      15.703467   14.685379   22.925803 O.3        1 MOL1        -0.5519
       7    H3      15.891071   15.623811   23.181468 H          1 MOL1         0.3769
       8    C3      18.074860   14.529982   22.320653 C.3        1 MOL1         0.1053
       9    H4      18.218729   15.572852   22.635261 H          1 MOL1         0.0783
      10    O3      18.342962   13.651572   23.419182 O.3        1 MOL1        -0.5519
      11    H5      17.568475   13.743722   24.017487 H          1 MOL1         0.3769
      12    C4      19.054226   14.231289   21.159444 C.3        1 MOL1         0.1018
      13    H6      19.056278   13.149171   20.974261 H          1 MOL1         0.0783
      14    C5      18.664215   14.975190   19.851894 C.3        1 MOL1         0.1043
      15    H7      18.819923   16.047459   20.009910 H          1 MOL1         0.0783
      16    O4      17.262089   14.734866   19.568937 O.3        1 MOL1        -0.3740
      17    C6      19.504516   14.591767   18.605822 C.3        1 MOL1         0.0138
      18    H8      20.360958   15.274821   18.542995 H          1 MOL1         0.0794
      19    H9      18.896466   14.765182   17.707979 H          1 MOL1         0.0794
      20    O5      19.974611   13.238610   18.628373 O.3        1 MOL1        -0.5486
      21    H10     20.739136   13.211623   19.249557 H          1 MOL1         0.3769
      22    C7      14.953082   20.306394   21.618044 C.3        1 MOL1         0.2972
      23    H11     14.289699   21.141017   21.878317 H          1 MOL1         0.0751
      24    O6      16.192782   20.772283   21.048790 O.3        1 MOL1        -0.3740
      25    C8      15.255355   19.442967   22.871234 C.3        1 MOL1         0.1003
      26    H12     14.294213   19.053398   23.231258 H          1 MOL1         0.0783
      27    O7      15.869864   20.209474   23.918923 O.3        1 MOL1        -0.5519
      28    H13     15.742864   21.163355   23.698189 H          1 MOL1         0.3769
      29    C9      16.153246   18.238846   22.507984 C.3        1 MOL1         0.1053
      30    H14     17.134268   18.628638   22.208498 H          1 MOL1         0.0783
      31    O8      16.293672   17.405798   23.662939 O.3        1 MOL1        -0.5519
      32    H15     16.513512   18.033018   24.388518 H          1 MOL1         0.3769
      33    C10     15.571152   17.430187   21.320939 C.3        1 MOL1         0.1018
      34    H16     14.715914   16.842041   21.678553 H          1 MOL1         0.0783
      35    C11     15.125009   18.349938   20.148686 C.3        1 MOL1         0.1043
      36    H17     16.026952   18.755768   19.672557 H          1 MOL1         0.0783
      37    O9      14.317576   19.448555   20.646164 O.3        1 MOL1        -0.3740
      38    C12     14.323054   17.608347   19.052651 C.3        1 MOL1         0.0138
      39    H18     15.010574   16.949301   18.505342 H          1 MOL1         0.0794
      40    H19     13.941983   18.348762   18.336641 H          1 MOL1         0.0794
      41    O10     13.243137   16.839169   19.597337 O.3        1 MOL1        -0.5486
      42    H20     12.734199   16.465809   18.844937 H          1 MOL1         0.3769
      43    C13     18.496393   24.186165   20.811200 C.3        1 MOL1         0.2972
      44    H21     18.950805   25.168433   20.628131 H          1 MOL1         0.0751
      45    O11     19.476447   23.208390   21.218509 O.3        1 MOL1        -0.3740
      46    C14     17.391257   24.266937   21.893664 C.3        1 MOL1         0.1003
      47    H22     16.592438   24.903725   21.491480 H          1 MOL1         0.0783
      48    O12     17.876385   24.851546   23.111075 O.3        1 MOL1        -0.5519
      49    H23     18.645121   24.304003   23.413690 H          1 MOL1         0.3769
      50    C15     16.791051   22.863190   22.156634 C.3        1 MOL1         0.1053
      51    H24     17.572512   22.233258   22.605631 H          1 MOL1         0.0783
      52    O13     15.693062   22.999840   23.065709 O.3        1 MOL1        -0.5519
      53    H25     15.994241   23.665009   23.726271 H          1 MOL1         0.3769
      54    C16     16.323633   22.192197   20.832813 C.3        1 MOL1         0.1018
      55    H26     15.369072   22.637550   20.525833 H          1 MOL1         0.0783
      56    C17     17.351947   22.349241   19.674898 C.3        1 MOL1         0.1043
      57    H27     18.194217   21.677377   19.870696 H          1 MOL1         0.0783
      58    O14     17.854385   23.706321   19.611249 O.3        1 MOL1        -0.3740
      59    C18     16.787854   21.956122   18.287510 C.3        1 MOL1         0.0138
      60    H28     16.651384   20.866495   18.262737 H          1 MOL1         0.0794
      61    H29     17.537466   22.205733   17.525025 H          1 MOL1         0.0794
      62    O15     15.546576   22.606581   17.987731 O.3        1 MOL1        -0.5486
      63    H30     14.847482   22.168134   18.518345 H          1 MOL1         0.3769
      64    C19     23.418688   22.631346   22.296481 C.3        1 MOL1         0.2972
      65    H31     24.469863   22.713190   22.601878 H          1 MOL1         0.0751
      66    O16     23.081443   21.276073   21.936396 O.3        1 MOL1        -0.3740
      67    C20     22.498082   23.107097   23.447371 C.3        1 MOL1         0.1003
      68    H32     22.675654   24.182918   23.572974 H          1 MOL1         0.0783
      69    O17     22.826160   22.456794   24.684683 O.3        1 MOL1        -0.5519
      70    H33     22.530826   21.508833   24.636876 H          1 MOL1         0.3769
      71    C21     21.014917   22.925527   23.041406 C.3        1 MOL1         0.1053
      72    H34     20.834304   21.863800   22.837035 H          1 MOL1         0.0783
      73    O18     20.143264   23.369411   24.088442 O.3        1 MOL1        -0.5519
      74    H35     20.159064   22.649280   24.773775 H          1 MOL1         0.3769
      75    C22     20.728289   23.703306   21.732662 C.3        1 MOL1         0.1018
      76    H36     20.689544   24.777271   21.958388 H          1 MOL1         0.0783
      77    C23     21.789953   23.416276   20.631227 C.3        1 MOL1         0.1043
      78    H37     21.598136   22.401991   20.265614 H          1 MOL1         0.0783
      79    O19     23.145667   23.474503   21.154473 O.3        1 MOL1        -0.3740
      80    C24     21.688390   24.369207   19.416544 C.3        1 MOL1         0.0138
      81    H38     20.764592   24.138191   18.868770 H          1 MOL1         0.0794
      82    H39     22.528358   24.167598   18.738278 H          1 MOL1         0.0794
      83    O20     21.686585   25.746055   19.813431 O.3        1 MOL1        -0.5486
      84    H40     21.692526   26.291589   18.996813 H          1 MOL1         0.3769
      85    C25     24.838647   17.665915   20.848921 C.3        1 MOL1         0.2972
      86    H41     25.476092   16.875073   20.433034 H          1 MOL1         0.0751
      87    O21     23.597980   17.137589   21.351130 O.3        1 MOL1        -0.3740
      88    C26     25.557102   18.407878   22.004824 C.3        1 MOL1         0.1003
      89    H42     26.483976   18.824597   21.589807 H          1 MOL1         0.0783
      90    O22     25.888104   17.504477   23.072242 O.3        1 MOL1        -0.5519
      91    H43     25.053428   17.037902   23.332433 H          1 MOL1         0.3769
      92    C27     24.708066   19.589982   22.541703 C.3        1 MOL1         0.1053
      93    H44     23.853555   19.179058   23.096965 H          1 MOL1         0.0783
      94    O23     25.526461   20.373934   23.416060 O.3        1 MOL1        -0.5519
      95    H45     25.879087   19.741482   24.078977 H          1 MOL1         0.3769
      96    C28     24.157509   20.483134   21.396035 C.3        1 MOL1         0.1018
      97    H46     24.976482   21.111330   21.022424 H          1 MOL1         0.0783
      98    C29     23.573881   19.657109   20.214960 C.3        1 MOL1         0.1043
      99    H47     22.646124   19.178885   20.553193 H          1 MOL1         0.0783
     100    O24     24.527515   18.638703   19.830105 O.3        1 MOL1        -0.3740
     101    C30     23.218343   20.486626   18.952753 C.3        1 MOL1         0.0138
     102    H48     22.167860   20.792369   19.020197 H          1 MOL1         0.0794
     103    H49     23.293129   19.833243   18.073286 H          1 MOL1         0.0794
     104    O25     24.050472   21.641217   18.776612 O.3        1 MOL1        -0.5486
     105    H50     23.879863   22.246844   19.534536 H          1 MOL1         0.3769
     106    C31     21.370771   13.722822   21.749305 C.3        1 MOL1         0.2972
     107    H51     20.952596   12.713675   21.856158 H          1 MOL1         0.0751
     108    O26     20.341174   14.714330   21.577974 O.3        1 MOL1        -0.3740
     109    C32     22.178551   14.094996   23.013938 C.3        1 MOL1         0.1003
     110    H52     23.016773   13.390865   23.095471 H          1 MOL1         0.0783
     111    O27     21.350471   13.990127   24.183282 O.3        1 MOL1        -0.5519
     112    H53     20.420677   14.156677   23.890733 H          1 MOL1         0.3769
     113    C33     22.758559   15.521923   22.884140 C.3        1 MOL1         0.1053
     114    H54     21.918145   16.227968   22.902717 H          1 MOL1         0.0783
     115    O28     23.633506   15.785226   23.986308 O.3        1 MOL1        -0.5519
     116    H55     23.119515   15.530534   24.784464 H          1 MOL1         0.3769
     117    C34     23.526058   15.714010   21.551785 C.3        1 MOL1         0.1018
     118    H56     24.521308   15.261802   21.656018 H          1 MOL1         0.0783
     119    C35     22.786822   15.114744   20.318184 C.3        1 MOL1         0.1043
     120    H57     21.953422   15.784401   20.074199 H          1 MOL1         0.0783
     121    O29     22.257420   13.795835   20.614445 O.3        1 MOL1        -0.3740
     122    C36     23.668454   15.012881   19.050716 C.3        1 MOL1         0.0138
     123    H58     23.847043   16.026481   18.667067 H          1 MOL1         0.0794
     124    H59     23.109878   14.466952   18.278528 H          1 MOL1         0.0794
     125    O30     24.918838   14.364165   19.313190 O.3        1 MOL1        -0.5486
     126    H60     25.387095   14.261171   18.456091 H          1 MOL1         0.3769
     127    C1      20.585133   20.068436   24.810630 C.2        1 MOL1         0.6173
     128    O1      19.927655   20.849872   25.470617 O.co2      1 MOL1        -0.6755
     129    O2      21.773395   19.885542   24.997837 O.co2      1 MOL1        -0.6755
     130    C2      19.941892   19.471985   23.610616 C.2        1 MOL1        -0.1504
     131    H1      18.888238   19.699929   23.469457 H          1 MOL1         0.0814
     132    C3      20.618145   18.734520   22.701882 C.2        1 MOL1        -0.1394
     133    H2      21.678348   18.530480   22.836294 H          1 MOL1         0.0817
     134    C4      20.010445   18.182837   21.434509 C.3        1 MOL1        -0.1849
     135    H3      19.149337   17.550930   21.680280 H          1 MOL1         0.0736
     136    H4      20.743287   17.541172   20.931693 H          1 MOL1         0.0736
     137    C5      19.579032   19.318490   20.486785 C.3        1 MOL1        -0.1866
     138    H5      18.745759   19.863159   20.945835 H          1 MOL1         0.0738
     139    H6      20.399888   20.038009   20.376236 H          1 MOL1         0.0738
     140    C6      19.161185   18.795828   19.098131 C.3        1 MOL1        -0.2879
     141    H7      19.979010   18.234939   18.628023 H          1 MOL1         0.0750
     142    H8      18.289171   18.135311   19.174138 H          1 MOL1         0.0750
     143    H9      18.897889   19.628707   18.434913 H          1 MOL1         0.0750
@<TRIPOS>BOND
    1     1     2    1
    2     1     3    1
    3     1     4    1
    4     4     5    1
    5     4     6    1
    6     6     7    1
    7     4     8    1
    8     8     9    1
    9     8    10    1
   10    10    11    1
   11     8    12    1
   12    12    13    1
   13    12    14    1
   14    14    15    1
   15     1    16    1
   16    14    16    1
   17    14    17    1
   18    17    18    1
   19    17    19    1
   20    17    20    1
   21    20    21    1
   22    22    23    1
   23    22    24    1
   24    22    25    1
   25    25    26    1
   26    25    27    1
   27    27    28    1
   28    25    29    1
   29    29    30    1
   30    29    31    1
   31    31    32    1
   32     3    33    1
   33    29    33    1
   34    33    34    1
   35    33    35    1
   36    35    36    1
   37    22    37    1
   38    35    37    1
   39    35    38    1
   40    38    39    1
   41    38    40    1
   42    38    41    1
   43    41    42    1
   44    43    44    1
   45    43    45    1
   46    43    46    1
   47    46    47    1
   48    46    48    1
   49    48    49    1
   50    46    50    1
   51    50    51    1
   52    50    52    1
   53    52    53    1
   54    24    54    1
   55    50    54    1
   56    54    55    1
   57    54    56    1
   58    56    57    1
   59    43    58    1
   60    56    58    1
   61    56    59    1
   62    59    60    1
   63    59    61    1
   64    59    62    1
   65    62    63    1
   66    64    65    1
   67    64    66    1
   68    64    67    1
   69    67    68    1
   70    67    69    1
   71    69    70    1
   72    67    71    1
   73    71    72    1
   74    71    73    1
   75    73    74    1
   76    45    75    1
   77    71    75    1
   78    75    76    1
   79    75    77    1
   80    77    78    1
   81    64    79    1
   82    77    79    1
   83    77    80    1
   84    80    81    1
   85    80    82    1
   86    80    83    1
   87    83    84    1
   88    85    86    1
   89    85    87    1
   90    85    88    1
   91    88    89    1
   92    88    90    1
   93    90    91    1
   94    88    92    1
   95    92    93    1
   96    92    94    1
   97    94    95    1
   98    66    96    1
   99    92    96    1
  100    96    97    1
  101    96    98    1
  102    98    99    1
  103    85   100    1
  104    98   100    1
  105    98   101    1
  106   101   102    1
  107   101   103    1
  108   101   104    1
  109   104   105    1
  110   106   107    1
  111    12   108    1
  112   106   108    1
  113   106   109    1
  114   109   110    1
  115   109   111    1
  116   111   112    1
  117   109   113    1
  118   113   114    1
  119   113   115    1
  120   115   116    1
  121    87   117    1
  122   113   117    1
  123   117   118    1
  124   117   119    1
  125   119   120    1
  126   106   121    1
  127   119   121    1
  128   119   122    1
  129   122   123    1
  130   122   124    1
  131   122   125    1
  132   125   126    1
  133   127   128    1
  134   127   129    2
  135   127   130    1
  136   130   131    1
  137   130   132    2
  138   132   133    1
  139   132   134    1
  140   134   135    1
  141   134   136    1
  142   134   137    1
  143   137   138    1
  144   137   139    1
  145   137   140    1
  146   140   141    1
  147   140   142    1
  148   140   143    1
@<TRIPOS>SUBSTRUCTURE
       1 MOL1            1 RESIDUE      1      MOL     
       2 MOL1          143 RESIDUE      1      MOL     
@<SCITEGIC>MOL_PROPERTY
feprocess Rank
SciTegic.value.IntegerValue
7

@<SCITEGIC>MOL_PROPERTY
Conf_Id
SciTegic.value.IntegerValue
917

@<SCITEGIC>MOL_PROPERTY
Probability
SciTegic.value.DoubleValue
0.99

@<SCITEGIC>MOL_PROPERTY
G
SciTegic.value.DoubleValue
497.361

@<SCITEGIC>MOL_PROPERTY
E
SciTegic.value.DoubleValue
313.206

@<SCITEGIC>MOL_PROPERTY
-TS
SciTegic.value.DoubleValue
184.155

@<SCITEGIC>MOL_PROPERTY
U+W
SciTegic.value.DoubleValue
187.118

@<SCITEGIC>MOL_PROPERTY
U
SciTegic.value.DoubleValue
266.799

@<SCITEGIC>MOL_PROPERTY
W
SciTegic.value.DoubleValue
-79.681

@<SCITEGIC>MOL_PROPERTY
W(PB)
SciTegic.value.DoubleValue
-85.660

@<SCITEGIC>MOL_PROPERTY
W(SA)
SciTegic.value.DoubleValue
5.980

@<SCITEGIC>MOL_PROPERTY
Valence
SciTegic.value.DoubleValue
148.069

@<SCITEGIC>MOL_PROPERTY
Coulomb
SciTegic.value.DoubleValue
143.768

@<SCITEGIC>MOL_PROPERTY
VdW
SciTegic.value.DoubleValue
-25.038

@<SCITEGIC>MOL_PROPERTY
VdW6
SciTegic.value.DoubleValue
-183.280

@<SCITEGIC>MOL_PROPERTY
VdW12
SciTegic.value.DoubleValue
158.242

@<SCITEGIC>MOL_PROPERTY
Bond
SciTegic.value.DoubleValue
4.994

@<SCITEGIC>MOL_PROPERTY
Angle
SciTegic.value.DoubleValue
14.729

@<SCITEGIC>MOL_PROPERTY
Pdih
SciTegic.value.DoubleValue
128.284

@<SCITEGIC>MOL_PROPERTY
Idih
SciTegic.value.DoubleValue
0.062

@<SCITEGIC>MOL_PROPERTY
Tether
SciTegic.value.DoubleValue
0.000

@<TRIPOS>MOLECULE
CD_guest-s19_fast_vm2_rndm.mol2 : feprocess host+ligand conformer 8
         143         148           2
SMALL
USER_CHARGES
 
@<TRIPOS>ATOM
       1    C1      16.166721   15.188058   20.745538 C.3        1 MOL1         0.2972
       2    H1      15.142358   15.001981   20.397800 H          1 MOL1         0.0751
       3    O1      16.342012   16.540219   21.206678 O.3        1 MOL1        -0.3740
       4    C2      16.538409   14.250545   21.922883 C.3        1 MOL1         0.1003
       5    H2      16.475748   13.218261   21.554810 H          1 MOL1         0.0783
       6    O2      15.629008   14.415165   23.023008 O.3        1 MOL1        -0.5519
       7    H3      15.538411   15.387676   23.190311 H          1 MOL1         0.3769
       8    C3      17.995986   14.509128   22.381385 C.3        1 MOL1         0.1053
       9    H4      18.045693   15.516200   22.818003 H          1 MOL1         0.0783
      10    O3      18.366106   13.539105   23.365573 O.3        1 MOL1        -0.5519
      11    H5      17.603776   13.497307   23.984709 H          1 MOL1         0.3769
      12    C4      18.975771   14.450262   21.181301 C.3        1 MOL1         0.1018
      13    H6      19.075305   13.403853   20.864063 H          1 MOL1         0.0783
      14    C5      18.487233   15.299175   19.973955 C.3        1 MOL1         0.1043
      15    H7      18.537951   16.359982   20.247582 H          1 MOL1         0.0783
      16    O4      17.112388   14.951110   19.677894 O.3        1 MOL1        -0.3740
      17    C6      19.333003   15.134448   18.683850 C.3        1 MOL1         0.0138
      18    H8      20.126963   15.891332   18.691661 H          1 MOL1         0.0794
      19    H9      18.695983   15.356832   17.817444 H          1 MOL1         0.0794
      20    O5      19.913500   13.831172   18.544839 O.3        1 MOL1        -0.5486
      21    H10     20.617433   13.749760   19.230114 H          1 MOL1         0.3769
      22    C7      14.684519   20.264505   21.472964 C.3        1 MOL1         0.2972
      23    H11     14.063744   21.168613   21.522056 H          1 MOL1         0.0751
      24    O6      16.089518   20.584610   21.455087 O.3        1 MOL1        -0.3740
      25    C8      14.407656   19.371443   22.704347 C.3        1 MOL1         0.1003
      26    H12     13.354622   19.063760   22.664867 H          1 MOL1         0.0783
      27    O7      14.647033   20.103761   23.916756 O.3        1 MOL1        -0.5519
      28    H13     15.246798   20.853110   23.681393 H          1 MOL1         0.3769
      29    C9      15.284022   18.100217   22.656615 C.3        1 MOL1         0.1053
      30    H14     16.326440   18.411598   22.790176 H          1 MOL1         0.0783
      31    O8      14.910725   17.218049   23.719815 O.3        1 MOL1        -0.5519
      32    H15     14.852228   17.793356   24.515094 H          1 MOL1         0.3769
      33    C10     15.169046   17.367452   21.296198 C.3        1 MOL1         0.1018
      34    H16     14.241905   16.779262   21.290818 H          1 MOL1         0.0783
      35    C11     15.213269   18.326376   20.071999 C.3        1 MOL1         0.1043
      36    H17     16.254919   18.645607   19.948673 H          1 MOL1         0.0783
      37    O9      14.384954   19.498600   20.288094 O.3        1 MOL1        -0.3740
      38    C12     14.781831   17.657068   18.745433 C.3        1 MOL1         0.0138
      39    H18     15.556439   16.936706   18.449744 H          1 MOL1         0.0794
      40    H19     14.736537   18.425904   17.962349 H          1 MOL1         0.0794
      41    O10     13.518660   16.991059   18.864225 O.3        1 MOL1        -0.5486
      42    H20     13.277557   16.648899   17.975776 H          1 MOL1         0.3769
      43    C13     18.609744   23.856951   20.788418 C.3        1 MOL1         0.2972
      44    H21     19.027714   24.815307   20.454120 H          1 MOL1         0.0751
      45    O11     19.620155   23.006502   21.359934 O.3        1 MOL1        -0.3740
      46    C14     17.496193   24.067728   21.850423 C.3        1 MOL1         0.1003
      47    H22     16.708047   24.669685   21.379818 H          1 MOL1         0.0783
      48    O12     17.992678   24.767951   23.001698 O.3        1 MOL1        -0.5519
      49    H23     18.785493   24.271824   23.329873 H          1 MOL1         0.3769
      50    C15     16.873830   22.710899   22.267488 C.3        1 MOL1         0.1053
      51    H24     17.642554   22.122843   22.788377 H          1 MOL1         0.0783
      52    O13     15.761437   22.937361   23.139807 O.3        1 MOL1        -0.5519
      53    H25     16.070788   23.619114   23.777211 H          1 MOL1         0.3769
      54    C16     16.417249   21.915387   21.020069 C.3        1 MOL1         0.1018
      55    H26     15.553505   22.425567   20.573456 H          1 MOL1         0.0783
      56    C17     17.545191   21.813092   19.958366 C.3        1 MOL1         0.1043
      57    H27     18.360237   21.208568   20.376215 H          1 MOL1         0.0783
      58    O14     18.029054   23.148747   19.669696 O.3        1 MOL1        -0.3740
      59    C18     17.124122   21.141087   18.625296 C.3        1 MOL1         0.0138
      60    H28     17.318368   20.064421   18.703139 H          1 MOL1         0.0794
      61    H29     17.772685   21.519189   17.823855 H          1 MOL1         0.0794
      62    O15     15.748334   21.359775   18.287425 O.3        1 MOL1        -0.5486
      63    H30     15.204777   20.831772   18.917878 H          1 MOL1         0.3769
      64    C19     23.617945   22.682499   22.297936 C.3        1 MOL1         0.2972
      65    H31     24.673195   22.842114   22.554617 H          1 MOL1         0.0751
      66    O16     23.347976   21.282249   22.071884 O.3        1 MOL1        -0.3740
      67    C20     22.720901   23.216159   23.443088 C.3        1 MOL1         0.1003
      68    H32     22.894164   24.298767   23.499894 H          1 MOL1         0.0783
      69    O17     23.058653   22.641662   24.717283 O.3        1 MOL1        -0.5519
      70    H33     23.148897   21.657859   24.628675 H          1 MOL1         0.3769
      71    C21     21.226754   23.010995   23.111504 C.3        1 MOL1         0.1053
      72    H34     21.028719   21.936458   23.048344 H          1 MOL1         0.0783
      73    O18     20.424799   23.599826   24.140256 O.3        1 MOL1        -0.5519
      74    H35     20.860559   23.335345   24.981466 H          1 MOL1         0.3769
      75    C22     20.865864   23.620880   21.738870 C.3        1 MOL1         0.1018
      76    H36     20.781567   24.711013   21.841319 H          1 MOL1         0.0783
      77    C23     21.897566   23.248145   20.638057 C.3        1 MOL1         0.1043
      78    H37     21.731673   22.191018   20.400757 H          1 MOL1         0.0783
      79    O19     23.264758   23.415641   21.103946 O.3        1 MOL1        -0.3740
      80    C24     21.720676   24.054453   19.328811 C.3        1 MOL1         0.0138
      81    H38     20.795459   23.724011   18.837538 H          1 MOL1         0.0794
      82    H39     22.551534   23.816284   18.651411 H          1 MOL1         0.0794
      83    O20     21.665470   25.465539   19.570493 O.3        1 MOL1        -0.5486
      84    H40     21.632539   25.916542   18.698724 H          1 MOL1         0.3769
      85    C25     24.985885   17.752747   20.657398 C.3        1 MOL1         0.2972
      86    H41     25.562000   16.939360   20.197838 H          1 MOL1         0.0751
      87    O21     23.666223   17.314202   21.050693 O.3        1 MOL1        -0.3740
      88    C26     25.733127   18.358935   21.872263 C.3        1 MOL1         0.1003
      89    H42     26.642822   18.836996   21.486815 H          1 MOL1         0.0783
      90    O22     26.119163   17.340821   22.806608 O.3        1 MOL1        -0.5519
      91    H43     25.288261   17.001192   23.222212 H          1 MOL1         0.3769
      92    C27     24.860294   19.465744   22.521770 C.3        1 MOL1         0.1053
      93    H44     23.953656   18.992304   22.921786 H          1 MOL1         0.0783
      94    O23     25.574419   20.113979   23.581184 O.3        1 MOL1        -0.5519
      95    H45     24.973129   20.072197   24.370771 H          1 MOL1         0.3769
      96    C28     24.428694   20.528226   21.471886 C.3        1 MOL1         0.1018
      97    H46     25.301101   21.162154   21.267453 H          1 MOL1         0.0783
      98    C29     23.930915   19.899809   20.129029 C.3        1 MOL1         0.1043
      99    H47     22.931020   19.482643   20.294882 H          1 MOL1         0.0783
     100    O24     24.822672   18.833081   19.718084 O.3        1 MOL1        -0.3740
     101    C30     23.817574   20.876468   18.927870 C.3        1 MOL1         0.0138
     102    H48     22.790377   21.251386   18.869374 H          1 MOL1         0.0794
     103    H49     23.984827   20.307908   18.003178 H          1 MOL1         0.0794
     104    O25     24.737601   21.972645   18.990619 O.3        1 MOL1        -0.5486
     105    H50     24.413547   22.583471   19.693890 H          1 MOL1         0.3769
     106    C31     21.278057   14.040566   21.861016 C.3        1 MOL1         0.2972
     107    H51     20.867186   13.045736   22.077361 H          1 MOL1         0.0751
     108    O26     20.230107   14.998872   21.625158 O.3        1 MOL1        -0.3740
     109    C32     22.116976   14.528602   23.065743 C.3        1 MOL1         0.1003
     110    H52     22.924553   13.801906   23.221870 H          1 MOL1         0.0783
     111    O27     21.290280   14.574787   24.238919 O.3        1 MOL1        -0.5519
     112    H53     20.368037   14.715648   23.923708 H          1 MOL1         0.3769
     113    C33     22.768340   15.905841   22.783752 C.3        1 MOL1         0.1053
     114    H54     21.977749   16.668759   22.765732 H          1 MOL1         0.0783
     115    O28     23.717292   16.199974   23.813871 O.3        1 MOL1        -0.5519
     116    H55     23.212367   16.558641   24.592744 H          1 MOL1         0.3769
     117    C34     23.498384   15.928476   21.413927 C.3        1 MOL1         0.1018
     118    H56     24.460930   15.409718   21.515811 H          1 MOL1         0.0783
     119    C35     22.664940   15.281537   20.274037 C.3        1 MOL1         0.1043
     120    H57     21.840106   15.967165   20.044974 H          1 MOL1         0.0783
     121    O29     22.120111   14.003523   20.690582 O.3        1 MOL1        -0.3740
     122    C36     23.464967   15.072909   18.965873 C.3        1 MOL1         0.0138
     123    H58     23.669299   16.057006   18.522648 H          1 MOL1         0.0794
     124    H59     22.837888   14.518894   18.254448 H          1 MOL1         0.0794
     125    O30     24.697262   14.377205   19.191533 O.3        1 MOL1        -0.5486
     126    H60     25.112574   14.214909   18.316578 H          1 MOL1         0.3769
     127    C1      22.607549   19.013370   25.382929 C.2        1 MOL1         0.6173
     128    O1      23.458849   19.882659   25.434581 O.co2      1 MOL1        -0.6755
     129    O2      22.765934   17.883787   25.805993 O.co2      1 MOL1        -0.6755
     130    C2      21.348020   19.361701   24.681712 C.2        1 MOL1        -0.1504
     131    H1      21.269219   20.391477   24.364737 H          1 MOL1         0.0814
     132    C3      20.350385   18.494895   24.402992 C.2        1 MOL1        -0.1394
     133    H2      20.413345   17.448998   24.701792 H          1 MOL1         0.0817
     134    C4      19.109266   18.893941   23.631759 C.3        1 MOL1        -0.1849
     135    H3      18.932139   19.974496   23.718056 H          1 MOL1         0.0736
     136    H4      18.236828   18.401851   24.079981 H          1 MOL1         0.0736
     137    C5      19.202472   18.503953   22.140289 C.3        1 MOL1        -0.1866
     138    H5      19.336917   17.419881   22.067404 H          1 MOL1         0.0738
     139    H6      18.256085   18.743074   21.639603 H          1 MOL1         0.0738
     140    C6      20.354562   19.211015   21.397690 C.3        1 MOL1        -0.2879
     141    H7      21.324153   18.925801   21.824431 H          1 MOL1         0.0750
     142    H8      20.358218   18.935335   20.335993 H          1 MOL1         0.0750
     143    H9      20.258599   20.300447   21.470488 H          1 MOL1         0.0750
@<TRIPOS>BOND
    1     1     2    1
    2     1     3    1
    3     1     4    1
    4     4     5    1
    5     4     6    1
    6     6     7    1
    7     4     8    1
    8     8     9    1
    9     8    10    1
   10    10    11    1
   11     8    12    1
   12    12    13    1
   13    12    14    1
   14    14    15    1
   15     1    16    1
   16    14    16    1
   17    14    17    1
   18    17    18    1
   19    17    19    1
   20    17    20    1
   21    20    21    1
   22    22    23    1
   23    22    24    1
   24    22    25    1
   25    25    26    1
   26    25    27    1
   27    27    28    1
   28    25    29    1
   29    29    30    1
   30    29    31    1
   31    31    32    1
   32     3    33    1
   33    29    33    1
   34    33    34    1
   35    33    35    1
   36    35    36    1
   37    22    37    1
   38    35    37    1
   39    35    38    1
   40    38    39    1
   41    38    40    1
   42    38    41    1
   43    41    42    1
   44    43    44    1
   45    43    45    1
   46    43    46    1
   47    46    47    1
   48    46    48    1
   49    48    49    1
   50    46    50    1
   51    50    51    1
   52    50    52    1
   53    52    53    1
   54    24    54    1
   55    50    54    1
   56    54    55    1
   57    54    56    1
   58    56    57    1
   59    43    58    1
   60    56    58    1
   61    56    59    1
   62    59    60    1
   63    59    61    1
   64    59    62    1
   65    62    63    1
   66    64    65    1
   67    64    66    1
   68    64    67    1
   69    67    68    1
   70    67    69    1
   71    69    70    1
   72    67    71    1
   73    71    72    1
   74    71    73    1
   75    73    74    1
   76    45    75    1
   77    71    75    1
   78    75    76    1
   79    75    77    1
   80    77    78    1
   81    64    79    1
   82    77    79    1
   83    77    80    1
   84    80    81    1
   85    80    82    1
   86    80    83    1
   87    83    84    1
   88    85    86    1
   89    85    87    1
   90    85    88    1
   91    88    89    1
   92    88    90    1
   93    90    91    1
   94    88    92    1
   95    92    93    1
   96    92    94    1
   97    94    95    1
   98    66    96    1
   99    92    96    1
  100    96    97    1
  101    96    98    1
  102    98    99    1
  103    85   100    1
  104    98   100    1
  105    98   101    1
  106   101   102    1
  107   101   103    1
  108   101   104    1
  109   104   105    1
  110   106   107    1
  111    12   108    1
  112   106   108    1
  113   106   109    1
  114   109   110    1
  115   109   111    1
  116   111   112    1
  117   109   113    1
  118   113   114    1
  119   113   115    1
  120   115   116    1
  121    87   117    1
  122   113   117    1
  123   117   118    1
  124   117   119    1
  125   119   120    1
  126   106   121    1
  127   119   121    1
  128   119   122    1
  129   122   123    1
  130   122   124    1
  131   122   125    1
  132   125   126    1
  133   127   128    1
  134   127   129    2
  135   127   130    1
  136   130   131    1
  137   130   132    2
  138   132   133    1
  139   132   134    1
  140   134   135    1
  141   134   136    1
  142   134   137    1
  143   137   138    1
  144   137   139    1
  145   137   140    1
  146   140   141    1
  147   140   142    1
  148   140   143    1
@<TRIPOS>SUBSTRUCTURE
       1 MOL1            1 RESIDUE      1      MOL     
       2 MOL1          143 RESIDUE      1      MOL     
@<SCITEGIC>MOL_PROPERTY
feprocess Rank
SciTegic.value.IntegerValue
8

@<SCITEGIC>MOL_PROPERTY
Conf_Id
SciTegic.value.IntegerValue
448

@<SCITEGIC>MOL_PROPERTY
Probability
SciTegic.value.DoubleValue
0.86

@<SCITEGIC>MOL_PROPERTY
G
SciTegic.value.DoubleValue
497.445

@<SCITEGIC>MOL_PROPERTY
E
SciTegic.value.DoubleValue
314.487

@<SCITEGIC>MOL_PROPERTY
-TS
SciTegic.value.DoubleValue
182.957

@<SCITEGIC>MOL_PROPERTY
U+W
SciTegic.value.DoubleValue
188.399

@<SCITEGIC>MOL_PROPERTY
U
SciTegic.value.DoubleValue
267.597

@<SCITEGIC>MOL_PROPERTY
W
SciTegic.value.DoubleValue
-79.198

@<SCITEGIC>MOL_PROPERTY
W(PB)
SciTegic.value.DoubleValue
-85.173

@<SCITEGIC>MOL_PROPERTY
W(SA)
SciTegic.value.DoubleValue
5.975

@<SCITEGIC>MOL_PROPERTY
Valence
SciTegic.value.DoubleValue
151.014

@<SCITEGIC>MOL_PROPERTY
Coulomb
SciTegic.value.DoubleValue
140.029

@<SCITEGIC>MOL_PROPERTY
VdW
SciTegic.value.DoubleValue
-23.446

@<SCITEGIC>MOL_PROPERTY
VdW6
SciTegic.value.DoubleValue
-181.760

@<SCITEGIC>MOL_PROPERTY
VdW12
SciTegic.value.DoubleValue
158.314

@<SCITEGIC>MOL_PROPERTY
Bond
SciTegic.value.DoubleValue
5.107

@<SCITEGIC>MOL_PROPERTY
Angle
SciTegic.value.DoubleValue
14.851

@<SCITEGIC>MOL_PROPERTY
Pdih
SciTegic.value.DoubleValue
131.042

@<SCITEGIC>MOL_PROPERTY
Idih
SciTegic.value.DoubleValue
0.014

@<SCITEGIC>MOL_PROPERTY
Tether
SciTegic.value.DoubleValue
0.000

@<TRIPOS>MOLECULE
CD_guest-s19_fast_vm2_rndm.mol2 : feprocess host+ligand conformer 9
         143         148           2
SMALL
USER_CHARGES
 
@<TRIPOS>ATOM
       1    C1      16.439782   15.376331   19.963930 C.3        1 MOL1         0.2972
       2    H1      15.523611   15.287106   19.366195 H          1 MOL1         0.0751
       3    O1      16.558770   16.679700   20.570783 O.3        1 MOL1        -0.3740
       4    C2      16.489769   14.300249   21.076547 C.3        1 MOL1         0.1003
       5    H2      16.505684   13.322005   20.578629 H          1 MOL1         0.0783
       6    O2      15.335487   14.371088   21.928131 O.3        1 MOL1        -0.5519
       7    H3      15.302117   15.287829   22.300999 H          1 MOL1         0.3769
       8    C3      17.789909   14.430660   21.908744 C.3        1 MOL1         0.1053
       9    H4      17.714808   15.348401   22.505640 H          1 MOL1         0.0783
      10    O3      17.894019   13.300851   22.780493 O.3        1 MOL1        -0.5519
      11    H5      17.026310   13.246175   23.237916 H          1 MOL1         0.3769
      12    C4      19.058668   14.530162   21.011821 C.3        1 MOL1         0.1018
      13    H6      19.333544   13.517785   20.690085 H          1 MOL1         0.0783
      14    C5      18.870510   15.438083   19.758584 C.3        1 MOL1         0.1043
      15    H7      18.885324   16.484104   20.087615 H          1 MOL1         0.0783
      16    O4      17.596731   15.161391   19.130879 O.3        1 MOL1        -0.3740
      17    C6      19.980907   15.306649   18.683745 C.3        1 MOL1         0.0138
      18    H8      20.767582   16.036978   18.906736 H          1 MOL1         0.0794
      19    H9      19.560318   15.594451   17.710923 H          1 MOL1         0.0794
      20    O5      20.544967   13.990904   18.602781 O.3        1 MOL1        -0.5486
      21    H10     20.978205   13.800603   19.464402 H          1 MOL1         0.3769
      22    C7      14.613759   20.270153   21.094706 C.3        1 MOL1         0.2972
      23    H11     13.919709   21.116848   21.159840 H          1 MOL1         0.0751
      24    O6      15.992664   20.707283   21.149426 O.3        1 MOL1        -0.3740
      25    C8      14.329794   19.226664   22.207664 C.3        1 MOL1         0.1003
      26    H12     13.343275   18.792789   21.999317 H          1 MOL1         0.0783
      27    O7      14.283039   19.842359   23.501707 O.3        1 MOL1        -0.5519
      28    H13     15.204755   20.125633   23.721059 H          1 MOL1         0.3769
      29    C9      15.372293   18.081051   22.117665 C.3        1 MOL1         0.1053
      30    H14     16.368256   18.509172   22.287217 H          1 MOL1         0.0783
      31    O8      15.114641   17.060010   23.090978 O.3        1 MOL1        -0.5519
      32    H15     15.865302   17.109389   23.742647 H          1 MOL1         0.3769
      33    C10     15.351258   17.452199   20.699615 C.3        1 MOL1         0.1018
      34    H16     14.454290   16.824290   20.615502 H          1 MOL1         0.0783
      35    C11     15.366669   18.515163   19.560883 C.3        1 MOL1         0.1043
      36    H17     16.376347   18.941260   19.506514 H          1 MOL1         0.0783
      37    O9      14.424630   19.582033   19.841075 O.3        1 MOL1        -0.3740
      38    C12     15.045651   17.932652   18.163638 C.3        1 MOL1         0.0138
      39    H18     15.898023   17.321488   17.837169 H          1 MOL1         0.0794
      40    H19     14.950092   18.763715   17.452095 H          1 MOL1         0.0794
      41    O10     13.851357   17.140042   18.168004 O.3        1 MOL1        -0.5486
      42    H20     13.667732   16.873331   17.240813 H          1 MOL1         0.3769
      43    C13     18.610774   23.735135   22.233561 C.3        1 MOL1         0.2972
      44    H21     19.076594   24.655895   22.605665 H          1 MOL1         0.0751
      45    O11     19.521502   22.974643   21.412479 O.3        1 MOL1        -0.3740
      46    C14     18.135032   22.851314   23.415891 C.3        1 MOL1         0.1003
      47    H22     17.408376   23.442631   23.987716 H          1 MOL1         0.0783
      48    O12     19.229736   22.499911   24.276446 O.3        1 MOL1        -0.5519
      49    H23     19.938073   23.170810   24.135046 H          1 MOL1         0.3769
      50    C15     17.416386   21.579105   22.902837 C.3        1 MOL1         0.1053
      51    H24     18.157731   20.950294   22.397139 H          1 MOL1         0.0783
      52    O13     16.855803   20.876395   24.014948 O.3        1 MOL1        -0.5519
      53    H25     17.619967   20.463447   24.500824 H          1 MOL1         0.3769
      54    C16     16.301680   21.917392   21.875770 C.3        1 MOL1         0.1018
      55    H26     15.430309   22.306729   22.417414 H          1 MOL1         0.0783
      56    C17     16.775897   22.946661   20.810788 C.3        1 MOL1         0.1043
      57    H27     17.479942   22.436921   20.139545 H          1 MOL1         0.0783
      58    O14     17.450896   24.062651   21.441005 O.3        1 MOL1        -0.3740
      59    C18     15.628405   23.502613   19.932398 C.3        1 MOL1         0.0138
      60    H28     15.214909   22.681619   19.330855 H          1 MOL1         0.0794
      61    H29     16.053115   24.233354   19.231447 H          1 MOL1         0.0794
      62    O15     14.588977   24.117323   20.705942 O.3        1 MOL1        -0.5486
      63    H30     14.136051   23.419796   21.222416 H          1 MOL1         0.3769
      64    C19     23.648901   22.729432   20.840656 C.3        1 MOL1         0.2972
      65    H31     24.698719   22.915803   20.582909 H          1 MOL1         0.0751
      66    O16     23.413619   21.350155   21.185747 O.3        1 MOL1        -0.3740
      67    C20     23.226216   23.600436   22.047973 C.3        1 MOL1         0.1003
      68    H32     23.331647   24.650065   21.743794 H          1 MOL1         0.0783
      69    O17     24.069609   23.359877   23.185245 O.3        1 MOL1        -0.5519
      70    H33     24.251428   22.386349   23.220167 H          1 MOL1         0.3769
      71    C21     21.739540   23.361324   22.410110 C.3        1 MOL1         0.1053
      72    H34     21.632094   22.327375   22.767574 H          1 MOL1         0.0783
      73    O18     21.387455   24.280308   23.450650 O.3        1 MOL1        -0.5519
      74    H35     22.175121   24.299201   24.041842 H          1 MOL1         0.3769
      75    C22     20.825493   23.544278   21.163431 C.3        1 MOL1         0.1018
      76    H36     20.749678   24.613545   20.929082 H          1 MOL1         0.0783
      77    C23     21.381222   22.787065   19.924667 C.3        1 MOL1         0.1043
      78    H37     21.264768   21.714062   20.109866 H          1 MOL1         0.0783
      79    O19     22.788574   23.078893   19.736022 O.3        1 MOL1        -0.3740
      80    C24     20.623488   23.098902   18.610663 C.3        1 MOL1         0.0138
      81    H38     19.642734   22.605709   18.649231 H          1 MOL1         0.0794
      82    H39     21.176850   22.650965   17.774795 H          1 MOL1         0.0794
      83    O20     20.450672   24.504191   18.390786 O.3        1 MOL1        -0.5486
      84    H40     19.773636   24.819347   19.027264 H          1 MOL1         0.3769
      85    C25     25.034782   17.543519   21.264973 C.3        1 MOL1         0.2972
      86    H41     25.655919   16.641463   21.192511 H          1 MOL1         0.0751
      87    O21     23.649457   17.216332   21.498961 O.3        1 MOL1        -0.3740
      88    C26     25.533264   18.482700   22.394048 C.3        1 MOL1         0.1003
      89    H42     26.545595   18.807469   22.120318 H          1 MOL1         0.0783
      90    O22     25.591031   17.814125   23.662814 O.3        1 MOL1        -0.5519
      91    H43     24.672103   17.510521   23.874500 H          1 MOL1         0.3769
      92    C27     24.636685   19.742198   22.477098 C.3        1 MOL1         0.1053
      93    H44     23.628791   19.430192   22.786014 H          1 MOL1         0.0783
      94    O23     25.181563   20.646842   23.442461 O.3        1 MOL1        -0.5519
      95    H45     25.422295   20.084373   24.212385 H          1 MOL1         0.3769
      96    C28     24.529576   20.443716   21.098470 C.3        1 MOL1         0.1018
      97    H46     25.474566   20.966597   20.903521 H          1 MOL1         0.0783
      98    C29     24.232104   19.446033   19.941703 C.3        1 MOL1         0.1043
      99    H47     23.195094   19.104489   20.037357 H          1 MOL1         0.0783
     100    O24     25.110067   18.295392   20.033724 O.3        1 MOL1        -0.3740
     101    C30     24.367021   20.063989   18.528714 C.3        1 MOL1         0.0138
     102    H48     23.532488   20.759927   18.367717 H          1 MOL1         0.0794
     103    H49     24.262522   19.258939   17.789354 H          1 MOL1         0.0794
     104    O25     25.613719   20.744620   18.338356 O.3        1 MOL1        -0.5486
     105    H50     25.509683   21.657339   18.680000 H          1 MOL1         0.3769
     106    C31     20.985699   14.240466   22.493809 C.3        1 MOL1         0.2972
     107    H51     20.458610   13.337961   22.828476 H          1 MOL1         0.0751
     108    O26     20.100050   15.139158   21.800243 O.3        1 MOL1        -0.3740
     109    C32     21.579701   14.989528   23.711046 C.3        1 MOL1         0.1003
     110    H52     22.308534   14.319206   24.184923 H          1 MOL1         0.0783
     111    O27     20.555381   15.318281   24.663386 O.3        1 MOL1        -0.5519
     112    H53     19.804007   15.715127   24.166398 H          1 MOL1         0.3769
     113    C33     22.328497   16.264524   23.260287 C.3        1 MOL1         0.1053
     114    H54     21.590288   16.964592   22.853141 H          1 MOL1         0.0783
     115    O28     22.973163   16.853342   24.393640 O.3        1 MOL1        -0.5519
     116    H55     22.280760   16.883222   25.091419 H          1 MOL1         0.3769
     117    C34     23.365751   15.960291   22.148944 C.3        1 MOL1         0.1018
     118    H56     24.259913   15.518521   22.608495 H          1 MOL1         0.0783
     119    C35     22.807101   15.020678   21.043349 C.3        1 MOL1         0.1043
     120    H57     22.121449   15.620026   20.437368 H          1 MOL1         0.0783
     121    O29     22.074394   13.901454   21.607224 O.3        1 MOL1        -0.3740
     122    C36     23.895563   14.469908   20.091349 C.3        1 MOL1         0.0138
     123    H58     24.266206   15.296745   19.470336 H          1 MOL1         0.0794
     124    H59     23.435043   13.736859   19.415554 H          1 MOL1         0.0794
     125    O30     24.984276   13.873225   20.806585 O.3        1 MOL1        -0.5486
     126    H60     25.594661   13.478720   20.145962 H          1 MOL1         0.3769
     127    C1      18.379507   18.046405   24.234354 C.2        1 MOL1         0.6173
     128    O1      17.595874   17.139791   24.443998 O.co2      1 MOL1        -0.6755
     129    O2      18.631668   18.922562   25.039577 O.co2      1 MOL1        -0.6755
     130    C2      19.002812   18.088279   22.887324 C.2        1 MOL1        -0.1504
     131    H1      18.685122   17.313310   22.201057 H          1 MOL1         0.0814
     132    C3      19.898076   19.013957   22.482773 C.2        1 MOL1        -0.1394
     133    H2      20.228719   19.808029   23.152477 H          1 MOL1         0.0817
     134    C4      20.500418   19.019287   21.097201 C.3        1 MOL1        -0.1849
     135    H3      20.885032   18.020266   20.854703 H          1 MOL1         0.0736
     136    H4      21.358257   19.697743   21.088762 H          1 MOL1         0.0736
     137    C5      19.479054   19.456988   20.027335 C.3        1 MOL1        -0.1866
     138    H5      18.590845   18.815343   20.083002 H          1 MOL1         0.0738
     139    H6      19.139763   20.479140   20.238614 H          1 MOL1         0.0738
     140    C6      20.072695   19.386818   18.605815 C.3        1 MOL1        -0.2879
     141    H7      20.969530   20.011786   18.518436 H          1 MOL1         0.0750
     142    H8      20.351179   18.357876   18.348558 H          1 MOL1         0.0750
     143    H9      19.341082   19.734145   17.865219 H          1 MOL1         0.0750
@<TRIPOS>BOND
    1     1     2    1
    2     1     3    1
    3     1     4    1
    4     4     5    1
    5     4     6    1
    6     6     7    1
    7     4     8    1
    8     8     9    1
    9     8    10    1
   10    10    11    1
   11     8    12    1
   12    12    13    1
   13    12    14    1
   14    14    15    1
   15     1    16    1
   16    14    16    1
   17    14    17    1
   18    17    18    1
   19    17    19    1
   20    17    20    1
   21    20    21    1
   22    22    23    1
   23    22    24    1
   24    22    25    1
   25    25    26    1
   26    25    27    1
   27    27    28    1
   28    25    29    1
   29    29    30    1
   30    29    31    1
   31    31    32    1
   32     3    33    1
   33    29    33    1
   34    33    34    1
   35    33    35    1
   36    35    36    1
   37    22    37    1
   38    35    37    1
   39    35    38    1
   40    38    39    1
   41    38    40    1
   42    38    41    1
   43    41    42    1
   44    43    44    1
   45    43    45    1
   46    43    46    1
   47    46    47    1
   48    46    48    1
   49    48    49    1
   50    46    50    1
   51    50    51    1
   52    50    52    1
   53    52    53    1
   54    24    54    1
   55    50    54    1
   56    54    55    1
   57    54    56    1
   58    56    57    1
   59    43    58    1
   60    56    58    1
   61    56    59    1
   62    59    60    1
   63    59    61    1
   64    59    62    1
   65    62    63    1
   66    64    65    1
   67    64    66    1
   68    64    67    1
   69    67    68    1
   70    67    69    1
   71    69    70    1
   72    67    71    1
   73    71    72    1
   74    71    73    1
   75    73    74    1
   76    45    75    1
   77    71    75    1
   78    75    76    1
   79    75    77    1
   80    77    78    1
   81    64    79    1
   82    77    79    1
   83    77    80    1
   84    80    81    1
   85    80    82    1
   86    80    83    1
   87    83    84    1
   88    85    86    1
   89    85    87    1
   90    85    88    1
   91    88    89    1
   92    88    90    1
   93    90    91    1
   94    88    92    1
   95    92    93    1
   96    92    94    1
   97    94    95    1
   98    66    96    1
   99    92    96    1
  100    96    97    1
  101    96    98    1
  102    98    99    1
  103    85   100    1
  104    98   100    1
  105    98   101    1
  106   101   102    1
  107   101   103    1
  108   101   104    1
  109   104   105    1
  110   106   107    1
  111    12   108    1
  112   106   108    1
  113   106   109    1
  114   109   110    1
  115   109   111    1
  116   111   112    1
  117   109   113    1
  118   113   114    1
  119   113   115    1
  120   115   116    1
  121    87   117    1
  122   113   117    1
  123   117   118    1
  124   117   119    1
  125   119   120    1
  126   106   121    1
  127   119   121    1
  128   119   122    1
  129   122   123    1
  130   122   124    1
  131   122   125    1
  132   125   126    1
  133   127   128    1
  134   127   129    2
  135   127   130    1
  136   130   131    1
  137   130   132    2
  138   132   133    1
  139   132   134    1
  140   134   135    1
  141   134   136    1
  142   134   137    1
  143   137   138    1
  144   137   139    1
  145   137   140    1
  146   140   141    1
  147   140   142    1
  148   140   143    1
@<TRIPOS>SUBSTRUCTURE
       1 MOL1            1 RESIDUE      1      MOL     
       2 MOL1          143 RESIDUE      1      MOL     
@<SCITEGIC>MOL_PROPERTY
feprocess Rank
SciTegic.value.IntegerValue
9

@<SCITEGIC>MOL_PROPERTY
Conf_Id
SciTegic.value.IntegerValue
625

@<SCITEGIC>MOL_PROPERTY
Probability
SciTegic.value.DoubleValue
0.83

@<SCITEGIC>MOL_PROPERTY
G
SciTegic.value.DoubleValue
497.465

@<SCITEGIC>MOL_PROPERTY
E
SciTegic.value.DoubleValue
314.047

@<SCITEGIC>MOL_PROPERTY
-TS
SciTegic.value.DoubleValue
183.418

@<SCITEGIC>MOL_PROPERTY
U+W
SciTegic.value.DoubleValue
187.959

@<SCITEGIC>MOL_PROPERTY
U
SciTegic.value.DoubleValue
266.331

@<SCITEGIC>MOL_PROPERTY
W
SciTegic.value.DoubleValue
-78.372

@<SCITEGIC>MOL_PROPERTY
W(PB)
SciTegic.value.DoubleValue
-84.353

@<SCITEGIC>MOL_PROPERTY
W(SA)
SciTegic.value.DoubleValue
5.980

@<SCITEGIC>MOL_PROPERTY
Valence
SciTegic.value.DoubleValue
147.718

@<SCITEGIC>MOL_PROPERTY
Coulomb
SciTegic.value.DoubleValue
144.331

@<SCITEGIC>MOL_PROPERTY
VdW
SciTegic.value.DoubleValue
-25.718

@<SCITEGIC>MOL_PROPERTY
VdW6
SciTegic.value.DoubleValue
-184.293

@<SCITEGIC>MOL_PROPERTY
VdW12
SciTegic.value.DoubleValue
158.575

@<SCITEGIC>MOL_PROPERTY
Bond
SciTegic.value.DoubleValue
5.045

@<SCITEGIC>MOL_PROPERTY
Angle
SciTegic.value.DoubleValue
15.281

@<SCITEGIC>MOL_PROPERTY
Pdih
SciTegic.value.DoubleValue
127.387

@<SCITEGIC>MOL_PROPERTY
Idih
SciTegic.value.DoubleValue
0.005

@<SCITEGIC>MOL_PROPERTY
Tether
SciTegic.value.DoubleValue
0.000

@<TRIPOS>MOLECULE
CD_guest-s19_fast_vm2_rndm.mol2 : feprocess host+ligand conformer 10
         143         148           2
SMALL
USER_CHARGES
 
@<TRIPOS>ATOM
       1    C1      16.339286   15.403204   20.575268 C.3        1 MOL1         0.2972
       2    H1      15.326104   15.262329   20.177271 H          1 MOL1         0.0751
       3    O1      16.492637   16.693867   21.195961 O.3        1 MOL1        -0.3740
       4    C2      16.664889   14.332090   21.650714 C.3        1 MOL1         0.1003
       5    H2      16.567239   13.347652   21.175652 H          1 MOL1         0.0783
       6    O2      15.724738   14.425842   22.734687 O.3        1 MOL1        -0.5519
       7    H3      15.727279   15.364949   23.046513 H          1 MOL1         0.3769
       8    C3      18.130491   14.475450   22.152038 C.3        1 MOL1         0.1053
       9    H4      18.210108   15.417040   22.712421 H          1 MOL1         0.0783
      10    O3      18.480229   13.374062   22.999805 O.3        1 MOL1        -0.5519
      11    H5      19.311105   13.635137   23.467829 H          1 MOL1         0.3769
      12    C4      19.113914   14.536280   20.951719 C.3        1 MOL1         0.1018
      13    H6      19.157408   13.548374   20.474414 H          1 MOL1         0.0783
      14    C5      18.676082   15.583337   19.897857 C.3        1 MOL1         0.1043
      15    H7      18.729705   16.578574   20.356627 H          1 MOL1         0.0783
      16    O4      17.311591   15.301131   19.510449 O.3        1 MOL1        -0.3740
      17    C6      19.571061   15.624718   18.631899 C.3        1 MOL1         0.0138
      18    H8      20.400988   16.317443   18.822183 H          1 MOL1         0.0794
      19    H9      18.988569   16.047099   17.802453 H          1 MOL1         0.0794
      20    O5      20.095294   14.340865   18.268023 O.3        1 MOL1        -0.5486
      21    H10     20.722279   14.071839   18.976928 H          1 MOL1         0.3769
      22    C7      14.616959   20.326746   21.710266 C.3        1 MOL1         0.2972
      23    H11     13.917989   21.165225   21.824782 H          1 MOL1         0.0751
      24    O6      15.984072   20.778551   21.691426 O.3        1 MOL1        -0.3740
      25    C8      14.458819   19.349306   22.899135 C.3        1 MOL1         0.1003
      26    H12     13.429754   18.967329   22.884023 H          1 MOL1         0.0783
      27    O7      14.696722   20.036726   24.137302 O.3        1 MOL1        -0.5519
      28    H13     15.374590   20.727664   23.945430 H          1 MOL1         0.3769
      29    C9      15.421334   18.147911   22.754434 C.3        1 MOL1         0.1053
      30    H14     16.446117   18.521250   22.876315 H          1 MOL1         0.0783
      31    O8      15.139626   17.183534   23.774204 O.3        1 MOL1        -0.5519
      32    H15     15.084681   17.702796   24.606994 H          1 MOL1         0.3769
      33    C10     15.301951   17.485388   21.359070 C.3        1 MOL1         0.1018
      34    H16     14.392326   16.870404   21.342658 H          1 MOL1         0.0783
      35    C11     15.277130   18.518988   20.197286 C.3        1 MOL1         0.1043
      36    H17     16.292204   18.924674   20.098686 H          1 MOL1         0.0783
      37    O9      14.357616   19.602947   20.490301 O.3        1 MOL1        -0.3740
      38    C12     14.888029   17.911381   18.827967 C.3        1 MOL1         0.0138
      39    H18     15.718875   17.287077   18.472983 H          1 MOL1         0.0794
      40    H19     14.763520   18.727869   18.104109 H          1 MOL1         0.0794
      41    O10     13.689686   17.129529   18.905694 O.3        1 MOL1        -0.5486
      42    H20     13.463726   16.838961   17.995308 H          1 MOL1         0.3769
      43    C13     18.438755   23.979650   20.741163 C.3        1 MOL1         0.2972
      44    H21     18.879655   24.925375   20.400935 H          1 MOL1         0.0751
      45    O11     19.458129   23.006095   21.057531 O.3        1 MOL1        -0.3740
      46    C14     17.516324   24.199822   21.970685 C.3        1 MOL1         0.1003
      47    H22     16.695667   24.851371   21.643344 H          1 MOL1         0.0783
      48    O12     18.203801   24.838295   23.056336 O.3        1 MOL1        -0.5519
      49    H23     18.921489   24.219306   23.344523 H          1 MOL1         0.3769
      50    C15     16.899654   22.855510   22.426757 C.3        1 MOL1         0.1053
      51    H24     17.711921   22.213437   22.795075 H          1 MOL1         0.0783
      52    O13     15.955469   23.090376   23.477140 O.3        1 MOL1        -0.5519
      53    H25     16.402955   23.712740   24.092123 H          1 MOL1         0.3769
      54    C16     16.201682   22.131031   21.247294 C.3        1 MOL1         0.1018
      55    H26     15.260282   22.653507   21.033003 H          1 MOL1         0.0783
      56    C17     17.080284   22.096731   19.961370 C.3        1 MOL1         0.1043
      57    H27     17.913492   21.409630   20.139038 H          1 MOL1         0.0783
      58    O14     17.608475   23.421135   19.699772 O.3        1 MOL1        -0.3740
      59    C18     16.365432   21.600186   18.677484 C.3        1 MOL1         0.0138
      60    H28     16.521622   20.518872   18.586563 H          1 MOL1         0.0794
      61    H29     16.854415   22.059155   17.807834 H          1 MOL1         0.0794
      62    O15     14.962663   21.887827   18.656572 O.3        1 MOL1        -0.5486
      63    H30     14.525896   21.215739   19.230444 H          1 MOL1         0.3769
      64    C19     23.495587   22.589015   21.958247 C.3        1 MOL1         0.2972
      65    H31     24.547682   22.742136   22.231254 H          1 MOL1         0.0751
      66    O16     23.255232   21.246170   21.497199 O.3        1 MOL1        -0.3740
      67    C20     22.577914   22.871920   23.174371 C.3        1 MOL1         0.1003
      68    H32     22.718598   23.925554   23.448608 H          1 MOL1         0.0783
      69    O17     22.921118   22.048875   24.299824 O.3        1 MOL1        -0.5519
      70    H33     23.635984   21.433494   24.005469 H          1 MOL1         0.3769
      71    C21     21.092293   22.673962   22.796188 C.3        1 MOL1         0.1053
      72    H34     20.936933   21.613041   22.562075 H          1 MOL1         0.0783
      73    O18     20.279975   23.049226   23.912594 O.3        1 MOL1        -0.5519
      74    H35     20.692190   22.589049   24.678872 H          1 MOL1         0.3769
      75    C22     20.720312   23.507544   21.543460 C.3        1 MOL1         0.1018
      76    H36     20.658885   24.565746   21.830080 H          1 MOL1         0.0783
      77    C23     21.755600   23.330029   20.395594 C.3        1 MOL1         0.1043
      78    H37     21.639715   22.315427   19.991941 H          1 MOL1         0.0783
      79    O19     23.108557   23.490464   20.899162 O.3        1 MOL1        -0.3740
      80    C24     21.550400   24.316702   19.221434 C.3        1 MOL1         0.0138
      81    H38     20.636360   24.031172   18.683241 H          1 MOL1         0.0794
      82    H39     22.389126   24.206718   18.521026 H          1 MOL1         0.0794
      83    O20     21.447272   25.675005   19.667415 O.3        1 MOL1        -0.5486
      84    H40     21.400990   26.247324   18.870678 H          1 MOL1         0.3769
      85    C25     25.146695   17.578758   21.083292 C.3        1 MOL1         0.2972
      86    H41     25.823186   16.741856   20.866801 H          1 MOL1         0.0751
      87    O21     23.818906   17.127059   21.408853 O.3        1 MOL1        -0.3740
      88    C26     25.660348   18.426876   22.274508 C.3        1 MOL1         0.1003
      89    H42     26.632573   18.844591   21.982234 H          1 MOL1         0.0783
      90    O22     25.830878   17.624308   23.453358 O.3        1 MOL1        -0.5519
      91    H43     24.980736   17.138778   23.606610 H          1 MOL1         0.3769
      92    C27     24.697609   19.608530   22.557167 C.3        1 MOL1         0.1053
      93    H44     23.744643   19.197765   22.920618 H          1 MOL1         0.0783
      94    O23     25.276924   20.450139   23.558818 O.3        1 MOL1        -0.5519
      95    H45     25.646796   19.830680   24.228179 H          1 MOL1         0.3769
      96    C28     24.413355   20.423553   21.266455 C.3        1 MOL1         0.1018
      97    H46     25.296976   21.026874   21.022100 H          1 MOL1         0.0783
      98    C29     24.068971   19.514823   20.054062 C.3        1 MOL1         0.1043
      99    H47     23.084229   19.065946   20.226487 H          1 MOL1         0.0783
     100    O24     25.051195   18.456366   19.939311 O.3        1 MOL1        -0.3740
     101    C30     23.974057   20.273296   18.706712 C.3        1 MOL1         0.0138
     102    H48     23.010565   20.799257   18.673153 H          1 MOL1         0.0794
     103    H49     23.967345   19.537175   17.892018 H          1 MOL1         0.0794
     104    O25     25.040091   21.211410   18.516122 O.3        1 MOL1        -0.5486
     105    H50     24.857891   21.981084   19.098093 H          1 MOL1         0.3769
     106    C31     21.339654   13.902768   21.748732 C.3        1 MOL1         0.2972
     107    H51     20.840287   12.930768   21.850124 H          1 MOL1         0.0751
     108    O26     20.406162   14.952379   21.422143 O.3        1 MOL1        -0.3740
     109    C32     22.038009   14.281960   23.074733 C.3        1 MOL1         0.1003
     110    H52     22.821193   13.537111   23.266011 H          1 MOL1         0.0783
     111    O27     21.076112   14.243081   24.143819 O.3        1 MOL1        -0.5519
     112    H53     21.201135   15.053740   24.702330 H          1 MOL1         0.3769
     113    C33     22.718301   15.668659   22.933243 C.3        1 MOL1         0.1053
     114    H54     21.938229   16.421600   22.782621 H          1 MOL1         0.0783
     115    O28     23.467527   15.989744   24.112816 O.3        1 MOL1        -0.5519
     116    H55     22.800489   16.232180   24.806309 H          1 MOL1         0.3769
     117    C34     23.642109   15.727465   21.689711 C.3        1 MOL1         0.1018
     118    H56     24.589426   15.225961   21.927964 H          1 MOL1         0.0783
     119    C35     22.998801   15.110462   20.413270 C.3        1 MOL1         0.1043
     120    H57     22.249653   15.822301   20.044547 H          1 MOL1         0.0783
     121    O29     22.340363   13.853566   20.711472 O.3        1 MOL1        -0.3740
     122    C36     24.006337   14.877398   19.262341 C.3        1 MOL1         0.0138
     123    H58     24.306644   15.853877   18.858759 H          1 MOL1         0.0794
     124    H59     23.496999   14.334438   18.454832 H          1 MOL1         0.0794
     125    O30     25.164513   14.153977   19.696961 O.3        1 MOL1        -0.5486
     126    H60     25.720658   13.979297   18.906513 H          1 MOL1         0.3769
     127    C1      20.665607   17.762712   25.253284 C.2        1 MOL1         0.6173
     128    O1      20.771284   18.729801   25.982657 O.co2      1 MOL1        -0.6755
     129    O2      21.103487   16.662429   25.538843 O.co2      1 MOL1        -0.6755
     130    C2      20.059485   17.919488   23.903086 C.2        1 MOL1        -0.1504
     131    H1      19.949449   17.009081   23.321515 H          1 MOL1         0.0814
     132    C3      19.703387   19.107065   23.366910 C.2        1 MOL1        -0.1394
     133    H2      19.820372   20.030598   23.932695 H          1 MOL1         0.0817
     134    C4      19.198914   19.262468   21.949155 C.3        1 MOL1        -0.1849
     135    H3      18.801287   20.274938   21.820722 H          1 MOL1         0.0736
     136    H4      18.374630   18.566634   21.758560 H          1 MOL1         0.0736
     137    C5      20.330900   19.014529   20.931510 C.3        1 MOL1        -0.1866
     138    H5      21.177755   19.663038   21.182020 H          1 MOL1         0.0738
     139    H6      20.687318   17.979418   21.022546 H          1 MOL1         0.0738
     140    C6      19.893590   19.287618   19.478537 C.3        1 MOL1        -0.2879
     141    H7      19.696563   20.355600   19.326639 H          1 MOL1         0.0750
     142    H8      20.684378   18.992485   18.777440 H          1 MOL1         0.0750
     143    H9      18.984537   18.727705   19.225408 H          1 MOL1         0.0750
@<TRIPOS>BOND
    1     1     2    1
    2     1     3    1
    3     1     4    1
    4     4     5    1
    5     4     6    1
    6     6     7    1
    7     4     8    1
    8     8     9    1
    9     8    10    1
   10    10    11    1
   11     8    12    1
   12    12    13    1
   13    12    14    1
   14    14    15    1
   15     1    16    1
   16    14    16    1
   17    14    17    1
   18    17    18    1
   19    17    19    1
   20    17    20    1
   21    20    21    1
   22    22    23    1
   23    22    24    1
   24    22    25    1
   25    25    26    1
   26    25    27    1
   27    27    28    1
   28    25    29    1
   29    29    30    1
   30    29    31    1
   31    31    32    1
   32     3    33    1
   33    29    33    1
   34    33    34    1
   35    33    35    1
   36    35    36    1
   37    22    37    1
   38    35    37    1
   39    35    38    1
   40    38    39    1
   41    38    40    1
   42    38    41    1
   43    41    42    1
   44    43    44    1
   45    43    45    1
   46    43    46    1
   47    46    47    1
   48    46    48    1
   49    48    49    1
   50    46    50    1
   51    50    51    1
   52    50    52    1
   53    52    53    1
   54    24    54    1
   55    50    54    1
   56    54    55    1
   57    54    56    1
   58    56    57    1
   59    43    58    1
   60    56    58    1
   61    56    59    1
   62    59    60    1
   63    59    61    1
   64    59    62    1
   65    62    63    1
   66    64    65    1
   67    64    66    1
   68    64    67    1
   69    67    68    1
   70    67    69    1
   71    69    70    1
   72    67    71    1
   73    71    72    1
   74    71    73    1
   75    73    74    1
   76    45    75    1
   77    71    75    1
   78    75    76    1
   79    75    77    1
   80    77    78    1
   81    64    79    1
   82    77    79    1
   83    77    80    1
   84    80    81    1
   85    80    82    1
   86    80    83    1
   87    83    84    1
   88    85    86    1
   89    85    87    1
   90    85    88    1
   91    88    89    1
   92    88    90    1
   93    90    91    1
   94    88    92    1
   95    92    93    1
   96    92    94    1
   97    94    95    1
   98    66    96    1
   99    92    96    1
  100    96    97    1
  101    96    98    1
  102    98    99    1
  103    85   100    1
  104    98   100    1
  105    98   101    1
  106   101   102    1
  107   101   103    1
  108   101   104    1
  109   104   105    1
  110   106   107    1
  111    12   108    1
  112   106   108    1
  113   106   109    1
  114   109   110    1
  115   109   111    1
  116   111   112    1
  117   109   113    1
  118   113   114    1
  119   113   115    1
  120   115   116    1
  121    87   117    1
  122   113   117    1
  123   117   118    1
  124   117   119    1
  125   119   120    1
  126   106   121    1
  127   119   121    1
  128   119   122    1
  129   122   123    1
  130   122   124    1
  131   122   125    1
  132   125   126    1
  133   127   128    1
  134   127   129    2
  135   127   130    1
  136   130   131    1
  137   130   132    2
  138   132   133    1
  139   132   134    1
  140   134   135    1
  141   134   136    1
  142   134   137    1
  143   137   138    1
  144   137   139    1
  145   137   140    1
  146   140   141    1
  147   140   142    1
  148   140   143    1
@<TRIPOS>SUBSTRUCTURE
       1 MOL1            1 RESIDUE      1      MOL     
       2 MOL1          143 RESIDUE      1      MOL     
@<SCITEGIC>MOL_PROPERTY
feprocess Rank
SciTegic.value.IntegerValue
10

@<SCITEGIC>MOL_PROPERTY
Conf_Id
SciTegic.value.IntegerValue
690

@<SCITEGIC>MOL_PROPERTY
Probability
SciTegic.value.DoubleValue
0.72

@<SCITEGIC>MOL_PROPERTY
G
SciTegic.value.DoubleValue
497.551

@<SCITEGIC>MOL_PROPERTY
E
SciTegic.value.DoubleValue
315.011

@<SCITEGIC>MOL_PROPERTY
-TS
SciTegic.value.DoubleValue
182.540

@<SCITEGIC>MOL_PROPERTY
U+W
SciTegic.value.DoubleValue
188.923

@<SCITEGIC>MOL_PROPERTY
U
SciTegic.value.DoubleValue
267.771

@<SCITEGIC>MOL_PROPERTY
W
SciTegic.value.DoubleValue
-78.848

@<SCITEGIC>MOL_PROPERTY
W(PB)
SciTegic.value.DoubleValue
-84.843

@<SCITEGIC>MOL_PROPERTY
W(SA)
SciTegic.value.DoubleValue
5.995

@<SCITEGIC>MOL_PROPERTY
Valence
SciTegic.value.DoubleValue
148.658

@<SCITEGIC>MOL_PROPERTY
Coulomb
SciTegic.value.DoubleValue
142.466

@<SCITEGIC>MOL_PROPERTY
VdW
SciTegic.value.DoubleValue
-23.353

@<SCITEGIC>MOL_PROPERTY
VdW6
SciTegic.value.DoubleValue
-179.389

@<SCITEGIC>MOL_PROPERTY
VdW12
SciTegic.value.DoubleValue
156.037

@<SCITEGIC>MOL_PROPERTY
Bond
SciTegic.value.DoubleValue
4.843

@<SCITEGIC>MOL_PROPERTY
Angle
SciTegic.value.DoubleValue
13.888

@<SCITEGIC>MOL_PROPERTY
Pdih
SciTegic.value.DoubleValue
129.901

@<SCITEGIC>MOL_PROPERTY
Idih
SciTegic.value.DoubleValue
0.026

@<SCITEGIC>MOL_PROPERTY
Tether
SciTegic.value.DoubleValue
0.000

@<TRIPOS>MOLECULE
CD_guest-s19_fast_vm2_rndm.mol2 : feprocess host+ligand conformer 11
         143         148           2
SMALL
USER_CHARGES
 
@<TRIPOS>ATOM
       1    C1      16.110714   15.181145   20.609181 C.3        1 MOL1         0.2972
       2    H1      15.051096   15.053117   20.352857 H          1 MOL1         0.0751
       3    O1      16.396895   16.520366   21.058752 O.3        1 MOL1        -0.3740
       4    C2      16.549912   14.189207   21.715923 C.3        1 MOL1         0.1003
       5    H2      16.434175   13.177092   21.306680 H          1 MOL1         0.0783
       6    O2      15.733150   14.310173   22.890169 O.3        1 MOL1        -0.5519
       7    H3      15.778448   15.256005   23.183465 H          1 MOL1         0.3769
       8    C3      18.046135   14.391484   22.067341 C.3        1 MOL1         0.1053
       9    H4      18.158891   15.379056   22.537764 H          1 MOL1         0.0783
      10    O3      18.442215   13.366133   22.984720 O.3        1 MOL1        -0.5519
      11    H5      17.686845   13.281977   23.610526 H          1 MOL1         0.3769
      12    C4      18.935646   14.355284   20.792089 C.3        1 MOL1         0.1018
      13    H6      19.039176   13.315364   20.457375 H          1 MOL1         0.0783
      14    C5      18.346708   15.204220   19.630708 C.3        1 MOL1         0.1043
      15    H7      18.453544   16.261468   19.894601 H          1 MOL1         0.0783
      16    O4      16.938637   14.913056   19.457163 O.3        1 MOL1        -0.3740
      17    C6      19.077042   15.009859   18.279009 C.3        1 MOL1         0.0138
      18    H8      20.048526   15.519731   18.332220 H          1 MOL1         0.0794
      19    H9      18.493735   15.508666   17.493782 H          1 MOL1         0.0794
      20    O5      19.273005   13.630041   17.946125 O.3        1 MOL1        -0.5486
      21    H10     19.991608   13.288796   18.520878 H          1 MOL1         0.3769
      22    C7      14.817340   20.208035   21.957249 C.3        1 MOL1         0.2972
      23    H11     14.206297   21.086714   22.201065 H          1 MOL1         0.0751
      24    O6      16.188665   20.575695   21.700228 O.3        1 MOL1        -0.3740
      25    C8      14.766869   19.187250   23.121123 C.3        1 MOL1         0.1003
      26    H12     13.743467   18.791676   23.152227 H          1 MOL1         0.0783
      27    O7      15.033969   19.811097   24.387810 O.3        1 MOL1        -0.5519
      28    H13     15.997810   20.038004   24.448474 H          1 MOL1         0.3769
      29    C9      15.711041   18.001240   22.803961 C.3        1 MOL1         0.1053
      30    H14     16.728707   18.386137   22.663449 H          1 MOL1         0.0783
      31    O8      15.716419   17.044173   23.868364 O.3        1 MOL1        -0.5519
      32    H15     16.372057   17.408830   24.520569 H          1 MOL1         0.3769
      33    C10     15.285290   17.334946   21.473552 C.3        1 MOL1         0.1018
      34    H16     14.374970   16.744863   21.643581 H          1 MOL1         0.0783
      35    C11     15.065375   18.374180   20.335037 C.3        1 MOL1         0.1043
      36    H17     16.059814   18.707915   20.023232 H          1 MOL1         0.0783
      37    O9      14.308677   19.532972   20.784153 O.3        1 MOL1        -0.3740
      38    C12     14.368519   17.782129   19.087116 C.3        1 MOL1         0.0138
      39    H18     15.065063   17.090637   18.593740 H          1 MOL1         0.0794
      40    H19     14.161215   18.595703   18.379026 H          1 MOL1         0.0794
      41    O10     13.158029   17.094182   19.425219 O.3        1 MOL1        -0.5486
      42    H20     12.732974   16.809192   18.586938 H          1 MOL1         0.3769
      43    C13     18.593491   23.811284   20.710544 C.3        1 MOL1         0.2972
      44    H21     19.018718   24.734711   20.297048 H          1 MOL1         0.0751
      45    O11     19.598851   23.004894   21.352156 O.3        1 MOL1        -0.3740
      46    C14     17.488468   24.131128   21.748784 C.3        1 MOL1         0.1003
      47    H22     16.729920   24.734955   21.234011 H          1 MOL1         0.0783
      48    O12     18.022594   24.886010   22.849048 O.3        1 MOL1        -0.5519
      49    H23     18.811794   24.392237   23.188506 H          1 MOL1         0.3769
      50    C15     16.795616   22.843927   22.266985 C.3        1 MOL1         0.1053
      51    H24     17.497692   22.320561   22.928848 H          1 MOL1         0.0783
      52    O13     15.627354   23.221001   23.002674 O.3        1 MOL1        -0.5519
      53    H25     15.940316   23.860235   23.679040 H          1 MOL1         0.3769
      54    C16     16.402861   21.876015   21.116656 C.3        1 MOL1         0.1018
      55    H26     15.495357   22.259604   20.632797 H          1 MOL1         0.0783
      56    C17     17.523921   21.718253   20.049719 C.3        1 MOL1         0.1043
      57    H27     18.348800   21.149805   20.498157 H          1 MOL1         0.0783
      58    O14     17.995967   23.028099   19.658234 O.3        1 MOL1        -0.3740
      59    C18     17.102701   20.960644   18.762987 C.3        1 MOL1         0.0138
      60    H28     17.344625   19.899082   18.887647 H          1 MOL1         0.0794
      61    H29     17.720712   21.319180   17.928984 H          1 MOL1         0.0794
      62    O15     15.713253   21.111591   18.441397 O.3        1 MOL1        -0.5486
      63    H30     15.193784   20.706015   19.173079 H          1 MOL1         0.3769
      64    C19     23.670537   22.837397   22.032775 C.3        1 MOL1         0.2972
      65    H31     24.735518   23.039371   22.204828 H          1 MOL1         0.0751
      66    O16     23.408026   21.425549   21.933149 O.3        1 MOL1        -0.3740
      67    C20     22.837034   23.383632   23.216031 C.3        1 MOL1         0.1003
      68    H32     22.996447   24.468577   23.266768 H          1 MOL1         0.0783
      69    O17     23.268891   22.777088   24.444479 O.3        1 MOL1        -0.5519
      70    H33     23.570986   21.864991   24.216071 H          1 MOL1         0.3769
      71    C21     21.329709   23.126923   22.986501 C.3        1 MOL1         0.1053
      72    H34     21.162654   22.042635   23.031015 H          1 MOL1         0.0783
      73    O18     20.569830   23.779081   24.010069 O.3        1 MOL1        -0.5519
      74    H35     21.000867   23.517946   24.853806 H          1 MOL1         0.3769
      75    C22     20.871241   23.632710   21.597447 C.3        1 MOL1         0.1018
      76    H36     20.787958   24.727055   21.637075 H          1 MOL1         0.0783
      77    C23     21.836488   23.207774   20.452633 C.3        1 MOL1         0.1043
      78    H37     21.709919   22.129715   20.291936 H          1 MOL1         0.0783
      79    O19     23.215160   23.473615   20.821027 O.3        1 MOL1        -0.3740
      80    C24     21.553253   23.908015   19.101912 C.3        1 MOL1         0.0138
      81    H38     20.621104   23.502232   18.686166 H          1 MOL1         0.0794
      82    H39     22.358989   23.654929   18.399902 H          1 MOL1         0.0794
      83    O20     21.445998   25.329943   19.243275 O.3        1 MOL1        -0.5486
      84    H40     21.349763   25.712666   18.344094 H          1 MOL1         0.3769
      85    C25     25.071485   17.768464   20.929468 C.3        1 MOL1         0.2972
      86    H41     25.706525   16.934606   20.603960 H          1 MOL1         0.0751
      87    O21     23.693609   17.355700   21.072999 O.3        1 MOL1        -0.3740
      88    C26     25.588193   18.384276   22.258928 C.3        1 MOL1         0.1003
      89    H42     26.586513   18.793008   22.055289 H          1 MOL1         0.0783
      90    O22     25.698806   17.408272   23.304636 O.3        1 MOL1        -0.5519
      91    H43     24.779762   17.095035   23.499700 H          1 MOL1         0.3769
      92    C27     24.677717   19.557488   22.695574 C.3        1 MOL1         0.1053
      93    H44     23.684128   19.152000   22.932626 H          1 MOL1         0.0783
      94    O23     25.228944   20.194131   23.853722 O.3        1 MOL1        -0.5519
      95    H45     25.486661   19.459875   24.453973 H          1 MOL1         0.3769
      96    C28     24.520217   20.594212   21.554959 C.3        1 MOL1         0.1018
      97    H46     25.456244   21.162215   21.475357 H          1 MOL1         0.0783
      98    C29     24.195502   19.930797   20.184880 C.3        1 MOL1         0.1043
      99    H47     23.175543   19.539850   20.235590 H          1 MOL1         0.0783
     100    O24     25.108521   18.829227   19.948290 O.3        1 MOL1        -0.3740
     101    C30     24.238759   20.880491   18.959670 C.3        1 MOL1         0.0138
     102    H48     23.235315   21.296255   18.807091 H          1 MOL1         0.0794
     103    H49     24.471076   20.285863   18.066124 H          1 MOL1         0.0794
     104    O25     25.183338   21.947843   19.097520 O.3        1 MOL1        -0.5486
     105    H50     24.749005   22.639857   19.648338 H          1 MOL1         0.3769
     106    C31     21.216767   14.060240   21.652676 C.3        1 MOL1         0.2972
     107    H51     20.806214   13.063961   21.861161 H          1 MOL1         0.0751
     108    O26     20.217949   14.939153   21.098780 O.3        1 MOL1        -0.3740
     109    C32     21.788014   14.690145   22.949622 C.3        1 MOL1         0.1003
     110    H52     22.588110   14.026828   23.303229 H          1 MOL1         0.0783
     111    O27     20.789668   14.803800   23.976043 O.3        1 MOL1        -0.5519
     112    H53     19.998553   14.296135   23.673054 H          1 MOL1         0.3769
     113    C33     22.409266   16.075636   22.661541 C.3        1 MOL1         0.1053
     114    H54     21.601126   16.752058   22.356449 H          1 MOL1         0.0783
     115    O28     23.020935   16.559604   23.860679 O.3        1 MOL1        -0.5519
     116    H55     22.335975   16.421075   24.553761 H          1 MOL1         0.3769
     117    C34     23.442158   16.002916   21.507708 C.3        1 MOL1         0.1018
     118    H56     24.352976   15.513787   21.877400 H          1 MOL1         0.0783
     119    C35     22.886142   15.225688   20.280662 C.3        1 MOL1         0.1043
     120    H57     22.110977   15.844776   19.809942 H          1 MOL1         0.0783
     121    O29     22.298687   13.966359   20.701039 O.3        1 MOL1        -0.3740
     122    C36     23.956191   14.931730   19.202215 C.3        1 MOL1         0.0138
     123    H58     24.221369   15.877042   18.709542 H          1 MOL1         0.0794
     124    H59     23.513267   14.278744   18.438326 H          1 MOL1         0.0794
     125    O30     25.131635   14.326384   19.755916 O.3        1 MOL1        -0.5486
     126    H60     25.728381   14.097928   19.010113 H          1 MOL1         0.3769
     127    C1      18.248573   19.536318   24.601364 C.2        1 MOL1         0.6173
     128    O1      17.685001   20.470422   25.135443 O.co2      1 MOL1        -0.6755
     129    O2      18.031898   18.376969   24.902346 O.co2      1 MOL1        -0.6755
     130    C2      19.098604   19.854702   23.425612 C.2        1 MOL1        -0.1504
     131    H1      19.203503   20.910795   23.198884 H          1 MOL1         0.0814
     132    C3      19.693301   18.930129   22.641428 C.2        1 MOL1        -0.1394
     133    H2      19.583968   17.865964   22.850103 H          1 MOL1         0.0817
     134    C4      20.510202   19.290733   21.420983 C.3        1 MOL1        -0.1849
     135    H3      21.558660   19.026711   21.594314 H          1 MOL1         0.0736
     136    H4      20.481216   20.374443   21.257916 H          1 MOL1         0.0736
     137    C5      19.979680   18.563337   20.171169 C.3        1 MOL1        -0.1866
     138    H5      20.229600   17.499012   20.250069 H          1 MOL1         0.0738
     139    H6      18.884372   18.637393   20.148501 H          1 MOL1         0.0738
     140    C6      20.554820   19.128488   18.857340 C.3        1 MOL1        -0.2879
     141    H7      20.078826   18.647290   17.993508 H          1 MOL1         0.0750
     142    H8      21.632533   18.942859   18.787198 H          1 MOL1         0.0750
     143    H9      20.380135   20.209548   18.781799 H          1 MOL1         0.0750
@<TRIPOS>BOND
    1     1     2    1
    2     1     3    1
    3     1     4    1
    4     4     5    1
    5     4     6    1
    6     6     7    1
    7     4     8    1
    8     8     9    1
    9     8    10    1
   10    10    11    1
   11     8    12    1
   12    12    13    1
   13    12    14    1
   14    14    15    1
   15     1    16    1
   16    14    16    1
   17    14    17    1
   18    17    18    1
   19    17    19    1
   20    17    20    1
   21    20    21    1
   22    22    23    1
   23    22    24    1
   24    22    25    1
   25    25    26    1
   26    25    27    1
   27    27    28    1
   28    25    29    1
   29    29    30    1
   30    29    31    1
   31    31    32    1
   32     3    33    1
   33    29    33    1
   34    33    34    1
   35    33    35    1
   36    35    36    1
   37    22    37    1
   38    35    37    1
   39    35    38    1
   40    38    39    1
   41    38    40    1
   42    38    41    1
   43    41    42    1
   44    43    44    1
   45    43    45    1
   46    43    46    1
   47    46    47    1
   48    46    48    1
   49    48    49    1
   50    46    50    1
   51    50    51    1
   52    50    52    1
   53    52    53    1
   54    24    54    1
   55    50    54    1
   56    54    55    1
   57    54    56    1
   58    56    57    1
   59    43    58    1
   60    56    58    1
   61    56    59    1
   62    59    60    1
   63    59    61    1
   64    59    62    1
   65    62    63    1
   66    64    65    1
   67    64    66    1
   68    64    67    1
   69    67    68    1
   70    67    69    1
   71    69    70    1
   72    67    71    1
   73    71    72    1
   74    71    73    1
   75    73    74    1
   76    45    75    1
   77    71    75    1
   78    75    76    1
   79    75    77    1
   80    77    78    1
   81    64    79    1
   82    77    79    1
   83    77    80    1
   84    80    81    1
   85    80    82    1
   86    80    83    1
   87    83    84    1
   88    85    86    1
   89    85    87    1
   90    85    88    1
   91    88    89    1
   92    88    90    1
   93    90    91    1
   94    88    92    1
   95    92    93    1
   96    92    94    1
   97    94    95    1
   98    66    96    1
   99    92    96    1
  100    96    97    1
  101    96    98    1
  102    98    99    1
  103    85   100    1
  104    98   100    1
  105    98   101    1
  106   101   102    1
  107   101   103    1
  108   101   104    1
  109   104   105    1
  110   106   107    1
  111    12   108    1
  112   106   108    1
  113   106   109    1
  114   109   110    1
  115   109   111    1
  116   111   112    1
  117   109   113    1
  118   113   114    1
  119   113   115    1
  120   115   116    1
  121    87   117    1
  122   113   117    1
  123   117   118    1
  124   117   119    1
  125   119   120    1
  126   106   121    1
  127   119   121    1
  128   119   122    1
  129   122   123    1
  130   122   124    1
  131   122   125    1
  132   125   126    1
  133   127   128    1
  134   127   129    2
  135   127   130    1
  136   130   131    1
  137   130   132    2
  138   132   133    1
  139   132   134    1
  140   134   135    1
  141   134   136    1
  142   134   137    1
  143   137   138    1
  144   137   139    1
  145   137   140    1
  146   140   141    1
  147   140   142    1
  148   140   143    1
@<TRIPOS>SUBSTRUCTURE
       1 MOL1            1 RESIDUE      1      MOL     
       2 MOL1          143 RESIDUE      1      MOL     
@<SCITEGIC>MOL_PROPERTY
feprocess Rank
SciTegic.value.IntegerValue
11

@<SCITEGIC>MOL_PROPERTY
Conf_Id
SciTegic.value.IntegerValue
769

@<SCITEGIC>MOL_PROPERTY
Probability
SciTegic.value.DoubleValue
0.49

@<SCITEGIC>MOL_PROPERTY
G
SciTegic.value.DoubleValue
497.784

@<SCITEGIC>MOL_PROPERTY
E
SciTegic.value.DoubleValue
315.011

@<SCITEGIC>MOL_PROPERTY
-TS
SciTegic.value.DoubleValue
182.773

@<SCITEGIC>MOL_PROPERTY
U+W
SciTegic.value.DoubleValue
188.923

@<SCITEGIC>MOL_PROPERTY
U
SciTegic.value.DoubleValue
267.979

@<SCITEGIC>MOL_PROPERTY
W
SciTegic.value.DoubleValue
-79.056

@<SCITEGIC>MOL_PROPERTY
W(PB)
SciTegic.value.DoubleValue
-85.007

@<SCITEGIC>MOL_PROPERTY
W(SA)
SciTegic.value.DoubleValue
5.951

@<SCITEGIC>MOL_PROPERTY
Valence
SciTegic.value.DoubleValue
148.973

@<SCITEGIC>MOL_PROPERTY
Coulomb
SciTegic.value.DoubleValue
144.044

@<SCITEGIC>MOL_PROPERTY
VdW
SciTegic.value.DoubleValue
-25.038

@<SCITEGIC>MOL_PROPERTY
VdW6
SciTegic.value.DoubleValue
-181.914

@<SCITEGIC>MOL_PROPERTY
VdW12
SciTegic.value.DoubleValue
156.875

@<SCITEGIC>MOL_PROPERTY
Bond
SciTegic.value.DoubleValue
4.924

@<SCITEGIC>MOL_PROPERTY
Angle
SciTegic.value.DoubleValue
15.370

@<SCITEGIC>MOL_PROPERTY
Pdih
SciTegic.value.DoubleValue
128.634

@<SCITEGIC>MOL_PROPERTY
Idih
SciTegic.value.DoubleValue
0.045

@<SCITEGIC>MOL_PROPERTY
Tether
SciTegic.value.DoubleValue
0.000

@<TRIPOS>MOLECULE
CD_guest-s19_fast_vm2_rndm.mol2 : feprocess host+ligand conformer 12
         143         148           2
SMALL
USER_CHARGES
 
@<TRIPOS>ATOM
       1    C1      16.069548   15.184587   21.090195 C.3        1 MOL1         0.2972
       2    H1      15.021134   14.983872   20.835933 H          1 MOL1         0.0751
       3    O1      16.166648   16.257860   22.043778 O.3        1 MOL1        -0.3740
       4    C2      16.711534   13.907942   21.704822 C.3        1 MOL1         0.1003
       5    H2      16.550731   13.094866   20.985322 H          1 MOL1         0.0783
       6    O2      16.085874   13.563045   22.950385 O.3        1 MOL1        -0.5519
       7    H3      16.356351   14.263567   23.605576 H          1 MOL1         0.3769
       8    C3      18.237871   14.056079   21.919238 C.3        1 MOL1         0.1053
       9    H4      18.399914   14.756827   22.743558 H          1 MOL1         0.0783
      10    O3      18.798687   12.782278   22.253680 O.3        1 MOL1        -0.5519
      11    H5      18.212363   12.421009   22.955451 H          1 MOL1         0.3769
      12    C4      18.937873   14.634956   20.670507 C.3        1 MOL1         0.1018
      13    H6      18.937923   13.876280   19.876632 H          1 MOL1         0.0783
      14    C5      18.215334   15.903005   20.152701 C.3        1 MOL1         0.1043
      15    H7      18.276018   16.682418   20.922517 H          1 MOL1         0.0783
      16    O4      16.828902   15.560635   19.914451 O.3        1 MOL1        -0.3740
      17    C6      18.823047   16.501903   18.857304 C.3        1 MOL1         0.0138
      18    H8      19.599306   17.223569   19.143056 H          1 MOL1         0.0794
      19    H9      18.041104   17.064062   18.330143 H          1 MOL1         0.0794
      20    O5      19.389157   15.515183   17.986042 O.3        1 MOL1        -0.5486
      21    H10     20.219380   15.194542   18.409195 H          1 MOL1         0.3769
      22    C7      14.859467   20.176006   22.080937 C.3        1 MOL1         0.2972
      23    H11     14.308376   21.123725   22.137479 H          1 MOL1         0.0751
      24    O6      16.249199   20.403171   21.766952 O.3        1 MOL1        -0.3740
      25    C8      14.745641   19.436914   23.432510 C.3        1 MOL1         0.1003
      26    H12     13.681860   19.244299   23.621434 H          1 MOL1         0.0783
      27    O7      15.272794   20.271412   24.475446 O.3        1 MOL1        -0.5519
      28    H13     16.147549   20.582854   24.157702 H          1 MOL1         0.3769
      29    C9      15.477594   18.076054   23.381130 C.3        1 MOL1         0.1053
      30    H14     16.550964   18.295009   23.324918 H          1 MOL1         0.0783
      31    O8      15.200750   17.324330   24.568961 O.3        1 MOL1        -0.5519
      32    H15     15.877233   16.596374   24.606860 H          1 MOL1         0.3769
      33    C10     15.089146   17.221837   22.141582 C.3        1 MOL1         0.1018
      34    H16     14.137651   16.718013   22.354142 H          1 MOL1         0.0783
      35    C11     14.962986   18.058860   20.824341 C.3        1 MOL1         0.1043
      36    H17     15.978260   18.243372   20.460754 H          1 MOL1         0.0783
      37    O9      14.302674   19.329675   21.060145 O.3        1 MOL1        -0.3740
      38    C12     14.157460   17.382484   19.682213 C.3        1 MOL1         0.0138
      39    H18     14.775324   16.627312   19.185144 H          1 MOL1         0.0794
      40    H19     13.930530   18.141810   18.921708 H          1 MOL1         0.0794
      41    O10     12.942842   16.786744   20.153337 O.3        1 MOL1        -0.5486
      42    H20     12.445214   16.464160   19.370481 H          1 MOL1         0.3769
      43    C13     18.611807   23.440290   20.117902 C.3        1 MOL1         0.2972
      44    H21     18.988907   24.276322   19.515089 H          1 MOL1         0.0751
      45    O11     19.664875   22.808223   20.868470 O.3        1 MOL1        -0.3740
      46    C14     17.525455   23.920444   21.114615 C.3        1 MOL1         0.1003
      47    H22     16.718704   24.370492   20.521593 H          1 MOL1         0.0783
      48    O12     18.047806   24.906016   22.020785 O.3        1 MOL1        -0.5519
      49    H23     18.849482   24.514917   22.452517 H          1 MOL1         0.3769
      50    C15     16.927346   22.729879   21.905246 C.3        1 MOL1         0.1053
      51    H24     17.701667   22.346041   22.581195 H          1 MOL1         0.0783
      52    O13     15.806639   23.198527   22.660808 O.3        1 MOL1        -0.5519
      53    H25     16.120542   24.012390   23.112857 H          1 MOL1         0.3769
      54    C16     16.496396   21.575612   20.961327 C.3        1 MOL1         0.1018
      55    H26     15.594608   21.890027   20.419448 H          1 MOL1         0.0783
      56    C17     17.600668   21.224310   19.926755 C.3        1 MOL1         0.1043
      57    H27     18.453288   20.785481   20.460035 H          1 MOL1         0.0783
      58    O14     18.020788   22.439384   19.262140 O.3        1 MOL1        -0.3740
      59    C18     17.171682   20.202708   18.843310 C.3        1 MOL1         0.0138
      60    H28     17.375403   19.194439   19.221431 H          1 MOL1         0.0794
      61    H29     17.809672   20.339904   17.960028 H          1 MOL1         0.0794
      62    O15     15.791190   20.316814   18.473742 O.3        1 MOL1        -0.5486
      63    H30     15.252168   20.111032   19.271557 H          1 MOL1         0.3769
      64    C19     23.692090   22.917911   21.596442 C.3        1 MOL1         0.2972
      65    H31     24.762698   23.123780   21.724116 H          1 MOL1         0.0751
      66    O16     23.404839   21.506302   21.647563 O.3        1 MOL1        -0.3740
      67    C20     22.844449   23.636985   22.676619 C.3        1 MOL1         0.1003
      68    H32     22.968308   24.716955   22.523277 H          1 MOL1         0.0783
      69    O17     23.280926   23.302151   24.002435 O.3        1 MOL1        -0.5519
      70    H33     23.260632   22.314355   24.080408 H          1 MOL1         0.3769
      71    C21     21.345566   23.298116   22.489881 C.3        1 MOL1         0.1053
      72    H34     21.208029   22.230146   22.707093 H          1 MOL1         0.0783
      73    O18     20.558553   24.078539   23.396666 O.3        1 MOL1        -0.5519
      74    H35     21.004797   23.985199   24.267403 H          1 MOL1         0.3769
      75    C22     20.877639   23.564074   21.035755 C.3        1 MOL1         0.1018
      76    H36     20.707660   24.643044   20.922106 H          1 MOL1         0.0783
      77    C23     21.881338   23.063496   19.954704 C.3        1 MOL1         0.1043
      78    H37     21.796795   21.970240   19.894443 H          1 MOL1         0.0783
      79    O19     23.240637   23.411515   20.319031 O.3        1 MOL1        -0.3740
      80    C24     21.602491   23.616695   18.536137 C.3        1 MOL1         0.0138
      81    H38     20.698082   23.132663   18.143642 H          1 MOL1         0.0794
      82    H39     22.434694   23.329189   17.879672 H          1 MOL1         0.0794
      83    O20     21.434292   25.039979   18.531743 O.3        1 MOL1        -0.5486
      84    H40     21.350408   25.327223   17.596205 H          1 MOL1         0.3769
      85    C25     24.898912   17.739411   22.239466 C.3        1 MOL1         0.2972
      86    H41     25.471390   16.829080   22.457377 H          1 MOL1         0.0751
      87    O21     23.700881   17.454344   21.485834 O.3        1 MOL1        -0.3740
      88    C26     24.507647   18.467791   23.550589 C.3        1 MOL1         0.1003
      89    H42     25.439860   18.780245   24.039023 H          1 MOL1         0.0783
      90    O22     23.775793   17.613440   24.443629 O.3        1 MOL1        -0.5519
      91    H43     23.870894   16.690488   24.106610 H          1 MOL1         0.3769
      92    C27     23.684230   19.735239   23.229409 C.3        1 MOL1         0.1053
      93    H44     22.735177   19.417591   22.779719 H          1 MOL1         0.0783
      94    O23     23.426068   20.446369   24.442887 O.3        1 MOL1        -0.5519
      95    H45     23.110827   19.753974   25.066614 H          1 MOL1         0.3769
      96    C28     24.412751   20.647607   22.210980 C.3        1 MOL1         0.1018
      97    H46     25.191932   21.212033   22.740085 H          1 MOL1         0.0783
      98    C29     25.029346   19.860968   21.017061 C.3        1 MOL1         0.1043
      99    H47     24.209970   19.571253   20.346183 H          1 MOL1         0.0783
     100    O24     25.703159   18.660156   21.473145 O.3        1 MOL1        -0.3740
     101    C30     26.025868   20.699510   20.181373 C.3        1 MOL1         0.0138
     102    H48     25.461496   21.467960   19.635712 H          1 MOL1         0.0794
     103    H49     26.493594   20.045251   19.433517 H          1 MOL1         0.0794
     104    O25     27.027491   21.320655   20.997008 O.3        1 MOL1        -0.5486
     105    H50     27.659026   21.775789   20.397974 H          1 MOL1         0.3769
     106    C31     21.323929   14.154393   20.586051 C.3        1 MOL1         0.2972
     107    H51     20.935297   13.190769   20.231916 H          1 MOL1         0.0751
     108    O26     20.269912   15.012050   21.060095 O.3        1 MOL1        -0.3740
     109    C32     22.327550   13.923564   21.741457 C.3        1 MOL1         0.1003
     110    H52     23.152312   13.320310   21.340083 H          1 MOL1         0.0783
     111    O27     21.711282   13.210745   22.825111 O.3        1 MOL1        -0.5519
     112    H53     20.732663   13.300379   22.709970 H          1 MOL1         0.3769
     113    C33     22.919017   15.261117   22.242926 C.3        1 MOL1         0.1053
     114    H54     22.111077   15.836036   22.714875 H          1 MOL1         0.0783
     115    O28     23.934204   14.966189   23.208214 O.3        1 MOL1        -0.5519
     116    H55     23.556753   14.230923   23.744222 H          1 MOL1         0.3769
     117    C34     23.493540   16.092434   21.061141 C.3        1 MOL1         0.1018
     118    H56     24.431372   15.635419   20.720743 H          1 MOL1         0.0783
     119    C35     22.499475   16.173422   19.867977 C.3        1 MOL1         0.1043
     120    H57     21.655371   16.802209   20.178283 H          1 MOL1         0.0783
     121    O29     22.008223   14.852308   19.524355 O.3        1 MOL1        -0.3740
     122    C36     23.099794   16.826001   18.598228 C.3        1 MOL1         0.0138
     123    H58     23.201404   17.905140   18.774942 H          1 MOL1         0.0794
     124    H59     22.388501   16.699736   17.771102 H          1 MOL1         0.0794
     125    O30     24.372428   16.273359   18.241330 O.3        1 MOL1        -0.5486
     126    H60     25.028211   16.598223   18.895020 H          1 MOL1         0.3769
     127    C1      18.264975   15.534696   25.454322 C.2        1 MOL1         0.6173
     128    O1      17.223092   15.380430   24.838536 O.co2      1 MOL1        -0.6755
     129    O2      18.499877   14.974626   26.507405 O.co2      1 MOL1        -0.6755
     130    C2      19.322736   16.430246   24.904484 C.2        1 MOL1        -0.1504
     131    H1      20.231373   16.513428   25.495859 H          1 MOL1         0.0814
     132    C3      19.197860   17.113177   23.744330 C.2        1 MOL1        -0.1394
     133    H2      18.292812   17.026686   23.155127 H          1 MOL1         0.0817
     134    C4      20.256320   18.020755   23.157810 C.3        1 MOL1        -0.1849
     135    H3      20.616988   17.588519   22.216942 H          1 MOL1         0.0736
     136    H4      21.123921   18.078860   23.826855 H          1 MOL1         0.0736
     137    C5      19.714815   19.438907   22.878433 C.3        1 MOL1        -0.1866
     138    H5      20.447511   19.995524   22.279169 H          1 MOL1         0.0738
     139    H6      18.799378   19.371660   22.276979 H          1 MOL1         0.0738
     140    C6      19.428072   20.217872   24.178411 C.3        1 MOL1        -0.2879
     141    H7      20.331910   20.287928   24.797161 H          1 MOL1         0.0750
     142    H8      19.095214   21.238347   23.956689 H          1 MOL1         0.0750
     143    H9      18.646103   19.723397   24.769199 H          1 MOL1         0.0750
@<TRIPOS>BOND
    1     1     2    1
    2     1     3    1
    3     1     4    1
    4     4     5    1
    5     4     6    1
    6     6     7    1
    7     4     8    1
    8     8     9    1
    9     8    10    1
   10    10    11    1
   11     8    12    1
   12    12    13    1
   13    12    14    1
   14    14    15    1
   15     1    16    1
   16    14    16    1
   17    14    17    1
   18    17    18    1
   19    17    19    1
   20    17    20    1
   21    20    21    1
   22    22    23    1
   23    22    24    1
   24    22    25    1
   25    25    26    1
   26    25    27    1
   27    27    28    1
   28    25    29    1
   29    29    30    1
   30    29    31    1
   31    31    32    1
   32     3    33    1
   33    29    33    1
   34    33    34    1
   35    33    35    1
   36    35    36    1
   37    22    37    1
   38    35    37    1
   39    35    38    1
   40    38    39    1
   41    38    40    1
   42    38    41    1
   43    41    42    1
   44    43    44    1
   45    43    45    1
   46    43    46    1
   47    46    47    1
   48    46    48    1
   49    48    49    1
   50    46    50    1
   51    50    51    1
   52    50    52    1
   53    52    53    1
   54    24    54    1
   55    50    54    1
   56    54    55    1
   57    54    56    1
   58    56    57    1
   59    43    58    1
   60    56    58    1
   61    56    59    1
   62    59    60    1
   63    59    61    1
   64    59    62    1
   65    62    63    1
   66    64    65    1
   67    64    66    1
   68    64    67    1
   69    67    68    1
   70    67    69    1
   71    69    70    1
   72    67    71    1
   73    71    72    1
   74    71    73    1
   75    73    74    1
   76    45    75    1
   77    71    75    1
   78    75    76    1
   79    75    77    1
   80    77    78    1
   81    64    79    1
   82    77    79    1
   83    77    80    1
   84    80    81    1
   85    80    82    1
   86    80    83    1
   87    83    84    1
   88    85    86    1
   89    85    87    1
   90    85    88    1
   91    88    89    1
   92    88    90    1
   93    90    91    1
   94    88    92    1
   95    92    93    1
   96    92    94    1
   97    94    95    1
   98    66    96    1
   99    92    96    1
  100    96    97    1
  101    96    98    1
  102    98    99    1
  103    85   100    1
  104    98   100    1
  105    98   101    1
  106   101   102    1
  107   101   103    1
  108   101   104    1
  109   104   105    1
  110   106   107    1
  111    12   108    1
  112   106   108    1
  113   106   109    1
  114   109   110    1
  115   109   111    1
  116   111   112    1
  117   109   113    1
  118   113   114    1
  119   113   115    1
  120   115   116    1
  121    87   117    1
  122   113   117    1
  123   117   118    1
  124   117   119    1
  125   119   120    1
  126   106   121    1
  127   119   121    1
  128   119   122    1
  129   122   123    1
  130   122   124    1
  131   122   125    1
  132   125   126    1
  133   127   128    1
  134   127   129    2
  135   127   130    1
  136   130   131    1
  137   130   132    2
  138   132   133    1
  139   132   134    1
  140   134   135    1
  141   134   136    1
  142   134   137    1
  143   137   138    1
  144   137   139    1
  145   137   140    1
  146   140   141    1
  147   140   142    1
  148   140   143    1
@<TRIPOS>SUBSTRUCTURE
       1 MOL1            1 RESIDUE      1      MOL     
       2 MOL1          143 RESIDUE      1      MOL     
@<SCITEGIC>MOL_PROPERTY
feprocess Rank
SciTegic.value.IntegerValue
12

@<SCITEGIC>MOL_PROPERTY
Conf_Id
SciTegic.value.IntegerValue
890

@<SCITEGIC>MOL_PROPERTY
Probability
SciTegic.value.DoubleValue
0.49

@<SCITEGIC>MOL_PROPERTY
G
SciTegic.value.DoubleValue
497.788

@<SCITEGIC>MOL_PROPERTY
E
SciTegic.value.DoubleValue
315.858

@<SCITEGIC>MOL_PROPERTY
-TS
SciTegic.value.DoubleValue
181.929

@<SCITEGIC>MOL_PROPERTY
U+W
SciTegic.value.DoubleValue
189.770

@<SCITEGIC>MOL_PROPERTY
U
SciTegic.value.DoubleValue
273.329

@<SCITEGIC>MOL_PROPERTY
W
SciTegic.value.DoubleValue
-83.559

@<SCITEGIC>MOL_PROPERTY
W(PB)
SciTegic.value.DoubleValue
-89.622

@<SCITEGIC>MOL_PROPERTY
W(SA)
SciTegic.value.DoubleValue
6.063

@<SCITEGIC>MOL_PROPERTY
Valence
SciTegic.value.DoubleValue
146.591

@<SCITEGIC>MOL_PROPERTY
Coulomb
SciTegic.value.DoubleValue
149.147

@<SCITEGIC>MOL_PROPERTY
VdW
SciTegic.value.DoubleValue
-22.410

@<SCITEGIC>MOL_PROPERTY
VdW6
SciTegic.value.DoubleValue
-177.473

@<SCITEGIC>MOL_PROPERTY
VdW12
SciTegic.value.DoubleValue
155.064

@<SCITEGIC>MOL_PROPERTY
Bond
SciTegic.value.DoubleValue
5.000

@<SCITEGIC>MOL_PROPERTY
Angle
SciTegic.value.DoubleValue
15.028

@<SCITEGIC>MOL_PROPERTY
Pdih
SciTegic.value.DoubleValue
126.563

@<SCITEGIC>MOL_PROPERTY
Idih
SciTegic.value.DoubleValue
0.001

@<SCITEGIC>MOL_PROPERTY
Tether
SciTegic.value.DoubleValue
0.000

@<TRIPOS>MOLECULE
CD_guest-s19_fast_vm2_rndm.mol2 : feprocess host+ligand conformer 13
         143         148           2
SMALL
USER_CHARGES
 
@<TRIPOS>ATOM
       1    C1      16.283090   15.364273   22.019565 C.3        1 MOL1         0.2972
       2    H1      15.193701   15.306525   22.142837 H          1 MOL1         0.0751
       3    O1      16.696972   16.711641   21.709688 O.3        1 MOL1        -0.3740
       4    C2      16.977324   14.880759   23.317367 C.3        1 MOL1         0.1003
       5    H2      16.705058   13.824825   23.444658 H          1 MOL1         0.0783
       6    O2      16.527785   15.602281   24.477858 O.3        1 MOL1        -0.5519
       7    H3      16.440163   16.562525   24.256595 H          1 MOL1         0.3769
       8    C3      18.515249   14.939781   23.177512 C.3        1 MOL1         0.1053
       9    H4      18.820060   15.985199   23.066724 H          1 MOL1         0.0783
      10    O3      19.117437   14.383154   24.349261 O.3        1 MOL1        -0.5519
      11    H5      18.596943   14.751543   25.098445 H          1 MOL1         0.3769
      12    C4      18.995522   14.181634   21.918292 C.3        1 MOL1         0.1018
      13    H6      18.973506   13.102783   22.121036 H          1 MOL1         0.0783
      14    C5      18.147582   14.514603   20.660290 C.3        1 MOL1         0.1043
      15    H7      18.435613   15.523742   20.349422 H          1 MOL1         0.0783
      16    O4      16.722272   14.500731   20.947252 O.3        1 MOL1        -0.3740
      17    C6      18.424101   13.563412   19.471269 C.3        1 MOL1         0.0138
      18    H8      19.442583   13.750604   19.104879 H          1 MOL1         0.0794
      19    H9      17.733826   13.807418   18.652908 H          1 MOL1         0.0794
      20    O5      18.287736   12.186479   19.843706 O.3        1 MOL1        -0.5486
      21    H10     18.425142   11.644553   19.036351 H          1 MOL1         0.3769
      22    C7      15.180097   20.221740   20.026482 C.3        1 MOL1         0.2972
      23    H11     14.635524   20.978611   19.447453 H          1 MOL1         0.0751
      24    O6      16.340451   20.781519   20.676486 O.3        1 MOL1        -0.3740
      25    C8      14.266488   19.556626   21.089284 C.3        1 MOL1         0.1003
      26    H12     13.469890   19.027783   20.550577 H          1 MOL1         0.0783
      27    O7      13.665560   20.543272   21.941234 O.3        1 MOL1        -0.5519
      28    H13     14.396916   20.979193   22.445293 H          1 MOL1         0.3769
      29    C9      15.077259   18.502029   21.889706 C.3        1 MOL1         0.1053
      30    H14     15.876276   19.030364   22.423517 H          1 MOL1         0.0783
      31    O8      14.240228   17.814635   22.827131 O.3        1 MOL1        -0.5519
      32    H15     14.608331   18.045136   23.719846 H          1 MOL1         0.3769
      33    C10     15.746253   17.477989   20.934044 C.3        1 MOL1         0.1018
      34    H16     14.959508   16.839160   20.511822 H          1 MOL1         0.0783
      35    C11     16.504861   18.178835   19.768158 C.3        1 MOL1         0.1043
      36    H17     17.387401   18.676924   20.186415 H          1 MOL1         0.0783
      37    O9      15.639496   19.167489   19.155301 O.3        1 MOL1        -0.3740
      38    C12     17.005150   17.237428   18.642685 C.3        1 MOL1         0.0138
      39    H18     18.024755   16.915019   18.881864 H          1 MOL1         0.0794
      40    H19     17.078093   17.816838   17.712609 H          1 MOL1         0.0794
      41    O10     16.159446   16.097934   18.439384 O.3        1 MOL1        -0.5486
      42    H20     16.219357   15.536490   19.247397 H          1 MOL1         0.3769
      43    C13     18.350436   24.227185   21.655270 C.3        1 MOL1         0.2972
      44    H21     18.707248   25.244829   21.855883 H          1 MOL1         0.0751
      45    O11     19.422137   23.262287   21.683792 O.3        1 MOL1        -0.3740
      46    C14     17.286564   23.809659   22.699877 C.3        1 MOL1         0.1003
      47    H22     16.426633   24.480706   22.577777 H          1 MOL1         0.0783
      48    O12     17.800105   23.956730   24.032189 O.3        1 MOL1        -0.5519
      49    H23     18.700711   23.547796   24.053561 H          1 MOL1         0.3769
      50    C15     16.795187   22.365055   22.425333 C.3        1 MOL1         0.1053
      51    H24     17.627752   21.672742   22.610561 H          1 MOL1         0.0783
      52    O13     15.702570   22.047565   23.293915 O.3        1 MOL1        -0.5519
      53    H25     16.110665   21.703526   24.134275 H          1 MOL1         0.3769
      54    C16     16.338680   22.195738   20.950370 C.3        1 MOL1         0.1018
      55    H26     15.337290   22.633261   20.842968 H          1 MOL1         0.0783
      56    C17     17.316247   22.840750   19.924719 C.3        1 MOL1         0.1043
      57    H27     18.205717   22.200584   19.856385 H          1 MOL1         0.0783
      58    O14     17.722989   24.163024   20.358819 O.3        1 MOL1        -0.3740
      59    C18     16.727976   22.950604   18.497654 C.3        1 MOL1         0.0138
      60    H28     16.655962   21.940093   18.072997 H          1 MOL1         0.0794
      61    H29     17.430433   23.517765   17.872429 H          1 MOL1         0.0794
      62    O15     15.437500   23.574234   18.488958 O.3        1 MOL1        -0.5486
      63    H30     15.162297   23.676396   17.551783 H          1 MOL1         0.3769
      64    C19     23.492568   22.669650   22.034837 C.3        1 MOL1         0.2972
      65    H31     24.580414   22.751144   22.157909 H          1 MOL1         0.0751
      66    O16     23.097819   21.337163   21.663166 O.3        1 MOL1        -0.3740
      67    C20     22.780397   23.026546   23.360321 C.3        1 MOL1         0.1003
      68    H32     23.027949   24.069362   23.597641 H          1 MOL1         0.0783
      69    O17     23.231870   22.177906   24.428515 O.3        1 MOL1        -0.5519
      70    H33     23.792307   21.474318   24.018312 H          1 MOL1         0.3769
      71    C21     21.247138   22.920858   23.196950 C.3        1 MOL1         0.1053
      72    H34     20.992092   21.867259   23.024851 H          1 MOL1         0.0783
      73    O18     20.621783   23.378211   24.398005 O.3        1 MOL1        -0.5519
      74    H35     21.123824   22.939677   25.121283 H          1 MOL1         0.3769
      75    C22     20.747585   23.741513   21.980967 C.3        1 MOL1         0.1018
      76    H36     20.758239   24.806073   22.246928 H          1 MOL1         0.0783
      77    C23     21.605952   23.501311   20.705307 C.3        1 MOL1         0.1043
      78    H37     21.375332   22.496582   20.333475 H          1 MOL1         0.0783
      79    O19     23.023076   23.573783   21.011748 O.3        1 MOL1        -0.3740
      80    C24     21.298745   24.485494   19.550635 C.3        1 MOL1         0.0138
      81    H38     20.292475   24.273184   19.164338 H          1 MOL1         0.0794
      82    H39     22.006012   24.291208   18.733368 H          1 MOL1         0.0794
      83    O20     21.386609   25.856836   19.957113 O.3        1 MOL1        -0.5486
      84    H40     20.553019   26.086943   20.417981 H          1 MOL1         0.3769
      85    C25     24.825886   17.687727   20.619198 C.3        1 MOL1         0.2972
      86    H41     25.475647   16.906698   20.203846 H          1 MOL1         0.0751
      87    O21     23.609396   17.140386   21.165881 O.3        1 MOL1        -0.3740
      88    C26     25.541460   18.453427   21.763283 C.3        1 MOL1         0.1003
      89    H42     26.440458   18.916659   21.336371 H          1 MOL1         0.0783
      90    O22     25.930002   17.562679   22.821157 O.3        1 MOL1        -0.5519
      91    H43     25.158307   16.969266   23.007582 H          1 MOL1         0.3769
      92    C27     24.635498   19.585048   22.311433 C.3        1 MOL1         0.1053
      93    H44     23.758272   19.126035   22.788344 H          1 MOL1         0.0783
      94    O23     25.362196   20.356309   23.273549 O.3        1 MOL1        -0.5519
      95    H45     25.836290   19.692994   23.824088 H          1 MOL1         0.3769
      96    C28     24.141585   20.491009   21.155821 C.3        1 MOL1         0.1018
      97    H46     24.989145   21.074033   20.772044 H          1 MOL1         0.0783
      98    C29     23.529804   19.665043   19.994307 C.3        1 MOL1         0.1043
      99    H47     22.616521   19.182023   20.358462 H          1 MOL1         0.0783
     100    O24     24.475935   18.645497   19.592830 O.3        1 MOL1        -0.3740
     101    C30     23.126383   20.508759   18.756633 C.3        1 MOL1         0.0138
     102    H48     22.092620   20.850289   18.895319 H          1 MOL1         0.0794
     103    H49     23.130106   19.858728   17.871656 H          1 MOL1         0.0794
     104    O25     23.976685   21.642847   18.541975 O.3        1 MOL1        -0.5486
     105    H50     23.808772   22.275637   19.277275 H          1 MOL1         0.3769
     106    C31     21.358024   13.683354   21.444239 C.3        1 MOL1         0.2972
     107    H51     20.958006   12.661384   21.436398 H          1 MOL1         0.0751
     108    O26     20.324750   14.666449   21.647086 O.3        1 MOL1        -0.3740
     109    C32     22.409613   13.861512   22.568150 C.3        1 MOL1         0.1003
     110    H52     23.245731   13.185788   22.345679 H          1 MOL1         0.0783
     111    O27     21.866094   13.524155   23.853861 O.3        1 MOL1        -0.5519
     112    H53     20.974174   13.950561   23.922104 H          1 MOL1         0.3769
     113    C33     22.955462   15.310552   22.567129 C.3        1 MOL1         0.1053
     114    H54     22.134529   15.990848   22.833043 H          1 MOL1         0.0783
     115    O28     24.006988   15.422622   23.531611 O.3        1 MOL1        -0.5519
     116    H55     23.664677   14.967147   24.333130 H          1 MOL1         0.3769
     117    C34     23.481888   15.706456   21.164657 C.3        1 MOL1         0.1018
     118    H56     24.446977   15.207238   21.006874 H          1 MOL1         0.0783
     119    C35     22.494560   15.330410   20.022622 C.3        1 MOL1         0.1043
     120    H57     21.639672   16.017583   20.068496 H          1 MOL1         0.0783
     121    O29     22.016727   13.971807   20.192601 O.3        1 MOL1        -0.3740
     122    C36     23.111262   15.458179   18.609001 C.3        1 MOL1         0.0138
     123    H58     23.243438   16.524522   18.381753 H          1 MOL1         0.0794
     124    H59     22.397605   15.055545   17.877877 H          1 MOL1         0.0794
     125    O30     24.369508   14.779427   18.503560 O.3        1 MOL1        -0.5486
     126    H60     24.672402   14.857706   17.572717 H          1 MOL1         0.3769
     127    C1      16.918352   19.281553   24.872897 C.2        1 MOL1         0.6173
     128    O1      16.876206   20.440373   25.241790 O.co2      1 MOL1        -0.6755
     129    O2      15.982677   18.506513   24.961805 O.co2      1 MOL1        -0.6755
     130    C2      18.134473   18.766430   24.196128 C.2        1 MOL1        -0.1504
     131    H1      18.085273   17.728907   23.901628 H          1 MOL1         0.0814
     132    C3      19.244701   19.484598   23.920911 C.2        1 MOL1        -0.1394
     133    H2      19.318851   20.535391   24.198329 H          1 MOL1         0.0817
     134    C4      20.445770   18.886887   23.214423 C.3        1 MOL1        -0.1849
     135    H3      20.773350   17.989408   23.755543 H          1 MOL1         0.0736
     136    H4      21.291092   19.585992   23.246135 H          1 MOL1         0.0736
     137    C5      20.141739   18.504204   21.747984 C.3        1 MOL1        -0.1866
     138    H5      20.998382   17.957375   21.337350 H          1 MOL1         0.0738
     139    H6      19.288754   17.815320   21.707840 H          1 MOL1         0.0738
     140    C6      19.848953   19.737771   20.871034 C.3        1 MOL1        -0.2879
     141    H7      20.676100   20.451852   20.918914 H          1 MOL1         0.0750
     142    H8      19.701425   19.448871   19.823246 H          1 MOL1         0.0750
     143    H9      18.944316   20.251768   21.215885 H          1 MOL1         0.0750
@<TRIPOS>BOND
    1     1     2    1
    2     1     3    1
    3     1     4    1
    4     4     5    1
    5     4     6    1
    6     6     7    1
    7     4     8    1
    8     8     9    1
    9     8    10    1
   10    10    11    1
   11     8    12    1
   12    12    13    1
   13    12    14    1
   14    14    15    1
   15     1    16    1
   16    14    16    1
   17    14    17    1
   18    17    18    1
   19    17    19    1
   20    17    20    1
   21    20    21    1
   22    22    23    1
   23    22    24    1
   24    22    25    1
   25    25    26    1
   26    25    27    1
   27    27    28    1
   28    25    29    1
   29    29    30    1
   30    29    31    1
   31    31    32    1
   32     3    33    1
   33    29    33    1
   34    33    34    1
   35    33    35    1
   36    35    36    1
   37    22    37    1
   38    35    37    1
   39    35    38    1
   40    38    39    1
   41    38    40    1
   42    38    41    1
   43    41    42    1
   44    43    44    1
   45    43    45    1
   46    43    46    1
   47    46    47    1
   48    46    48    1
   49    48    49    1
   50    46    50    1
   51    50    51    1
   52    50    52    1
   53    52    53    1
   54    24    54    1
   55    50    54    1
   56    54    55    1
   57    54    56    1
   58    56    57    1
   59    43    58    1
   60    56    58    1
   61    56    59    1
   62    59    60    1
   63    59    61    1
   64    59    62    1
   65    62    63    1
   66    64    65    1
   67    64    66    1
   68    64    67    1
   69    67    68    1
   70    67    69    1
   71    69    70    1
   72    67    71    1
   73    71    72    1
   74    71    73    1
   75    73    74    1
   76    45    75    1
   77    71    75    1
   78    75    76    1
   79    75    77    1
   80    77    78    1
   81    64    79    1
   82    77    79    1
   83    77    80    1
   84    80    81    1
   85    80    82    1
   86    80    83    1
   87    83    84    1
   88    85    86    1
   89    85    87    1
   90    85    88    1
   91    88    89    1
   92    88    90    1
   93    90    91    1
   94    88    92    1
   95    92    93    1
   96    92    94    1
   97    94    95    1
   98    66    96    1
   99    92    96    1
  100    96    97    1
  101    96    98    1
  102    98    99    1
  103    85   100    1
  104    98   100    1
  105    98   101    1
  106   101   102    1
  107   101   103    1
  108   101   104    1
  109   104   105    1
  110   106   107    1
  111    12   108    1
  112   106   108    1
  113   106   109    1
  114   109   110    1
  115   109   111    1
  116   111   112    1
  117   109   113    1
  118   113   114    1
  119   113   115    1
  120   115   116    1
  121    87   117    1
  122   113   117    1
  123   117   118    1
  124   117   119    1
  125   119   120    1
  126   106   121    1
  127   119   121    1
  128   119   122    1
  129   122   123    1
  130   122   124    1
  131   122   125    1
  132   125   126    1
  133   127   128    1
  134   127   129    2
  135   127   130    1
  136   130   131    1
  137   130   132    2
  138   132   133    1
  139   132   134    1
  140   134   135    1
  141   134   136    1
  142   134   137    1
  143   137   138    1
  144   137   139    1
  145   137   140    1
  146   140   141    1
  147   140   142    1
  148   140   143    1
@<TRIPOS>SUBSTRUCTURE
       1 MOL1            1 RESIDUE      1      MOL     
       2 MOL1          143 RESIDUE      1      MOL     
@<SCITEGIC>MOL_PROPERTY
feprocess Rank
SciTegic.value.IntegerValue
13

@<SCITEGIC>MOL_PROPERTY
Conf_Id
SciTegic.value.IntegerValue
3

@<SCITEGIC>MOL_PROPERTY
Probability
SciTegic.value.DoubleValue
0.43

@<SCITEGIC>MOL_PROPERTY
G
SciTegic.value.DoubleValue
497.858

@<SCITEGIC>MOL_PROPERTY
E
SciTegic.value.DoubleValue
314.687

@<SCITEGIC>MOL_PROPERTY
-TS
SciTegic.value.DoubleValue
183.171

@<SCITEGIC>MOL_PROPERTY
U+W
SciTegic.value.DoubleValue
188.599

@<SCITEGIC>MOL_PROPERTY
U
SciTegic.value.DoubleValue
268.576

@<SCITEGIC>MOL_PROPERTY
W
SciTegic.value.DoubleValue
-79.977

@<SCITEGIC>MOL_PROPERTY
W(PB)
SciTegic.value.DoubleValue
-85.960

@<SCITEGIC>MOL_PROPERTY
W(SA)
SciTegic.value.DoubleValue
5.983

@<SCITEGIC>MOL_PROPERTY
Valence
SciTegic.value.DoubleValue
151.389

@<SCITEGIC>MOL_PROPERTY
Coulomb
SciTegic.value.DoubleValue
141.793

@<SCITEGIC>MOL_PROPERTY
VdW
SciTegic.value.DoubleValue
-24.605

@<SCITEGIC>MOL_PROPERTY
VdW6
SciTegic.value.DoubleValue
-182.170

@<SCITEGIC>MOL_PROPERTY
VdW12
SciTegic.value.DoubleValue
157.565

@<SCITEGIC>MOL_PROPERTY
Bond
SciTegic.value.DoubleValue
5.002

@<SCITEGIC>MOL_PROPERTY
Angle
SciTegic.value.DoubleValue
14.646

@<SCITEGIC>MOL_PROPERTY
Pdih
SciTegic.value.DoubleValue
131.729

@<SCITEGIC>MOL_PROPERTY
Idih
SciTegic.value.DoubleValue
0.011

@<SCITEGIC>MOL_PROPERTY
Tether
SciTegic.value.DoubleValue
0.000

@<TRIPOS>MOLECULE
CD_guest-s19_fast_vm2_rndm.mol2 : feprocess host+ligand conformer 14
         143         148           2
SMALL
USER_CHARGES
 
@<TRIPOS>ATOM
       1    C1      16.271429   15.326156   20.731076 C.3        1 MOL1         0.2972
       2    H1      15.246273   15.137401   20.387051 H          1 MOL1         0.0751
       3    O1      16.420717   16.654729   21.262208 O.3        1 MOL1        -0.3740
       4    C2      16.672353   14.336154   21.857479 C.3        1 MOL1         0.1003
       5    H2      16.585262   13.320732   21.449692 H          1 MOL1         0.0783
       6    O2      15.798839   14.467262   22.991164 O.3        1 MOL1        -0.5519
       7    H3      15.719105   15.434269   23.191928 H          1 MOL1         0.3769
       8    C3      18.145883   14.556208   22.286757 C.3        1 MOL1         0.1053
       9    H4      18.217508   15.541703   22.765670 H          1 MOL1         0.0783
      10    O3      18.531324   13.539289   23.217125 O.3        1 MOL1        -0.5519
      11    H5      17.772813   13.461193   23.838415 H          1 MOL1         0.3769
      12    C4      19.082661   14.544002   21.051625 C.3        1 MOL1         0.1018
      13    H6      19.125637   13.524973   20.644871 H          1 MOL1         0.0783
      14    C5      18.580533   15.507366   19.945726 C.3        1 MOL1         0.1043
      15    H7      18.633301   16.534664   20.329023 H          1 MOL1         0.0783
      16    O4      17.205109   15.176020   19.636533 O.3        1 MOL1        -0.3740
      17    C6      19.419497   15.471192   18.641786 C.3        1 MOL1         0.0138
      18    H8      20.234161   16.200350   18.737943 H          1 MOL1         0.0794
      19    H9      18.789063   15.808018   17.808201 H          1 MOL1         0.0794
      20    O5      19.967514   14.177027   18.357249 O.3        1 MOL1        -0.5486
      21    H10     20.627184   13.978649   19.060550 H          1 MOL1         0.3769
      22    C7      14.621778   20.322013   21.590211 C.3        1 MOL1         0.2972
      23    H11     13.962270   21.196258   21.666452 H          1 MOL1         0.0751
      24    O6      16.007601   20.706951   21.522011 O.3        1 MOL1        -0.3740
      25    C8      14.440805   19.416630   22.831061 C.3        1 MOL1         0.1003
      26    H12     13.402638   19.059873   22.837783 H          1 MOL1         0.0783
      27    O7      14.699062   20.162092   24.031240 O.3        1 MOL1        -0.5519
      28    H13     15.313631   20.892907   23.780656 H          1 MOL1         0.3769
      29    C9      15.373699   18.187241   22.744786 C.3        1 MOL1         0.1053
      30    H14     16.407733   18.544264   22.833958 H          1 MOL1         0.0783
      31    O8      15.085836   17.285730   23.819054 O.3        1 MOL1        -0.5519
      32    H15     15.042354   17.853002   24.620748 H          1 MOL1         0.3769
      33    C10     15.228495   17.449534   21.390561 C.3        1 MOL1         0.1018
      34    H16     14.320927   16.832440   21.425536 H          1 MOL1         0.0783
      35    C11     15.185987   18.409863   20.166148 C.3        1 MOL1         0.1043
      36    H17     16.206364   18.776325   20.004210 H          1 MOL1         0.0783
      37    O9      14.313126   19.542722   20.416379 O.3        1 MOL1        -0.3740
      38    C12     14.733599   17.727089   18.853299 C.3        1 MOL1         0.0138
      39    H18     15.532214   17.052891   18.516062 H          1 MOL1         0.0794
      40    H19     14.612143   18.498097   18.080543 H          1 MOL1         0.0794
      41    O10     13.514616   16.992604   19.020088 O.3        1 MOL1        -0.5486
      42    H20     13.250856   16.648880   18.138739 H          1 MOL1         0.3769
      43    C13     18.521042   23.897865   20.692736 C.3        1 MOL1         0.2972
      44    H21     18.986656   24.829863   20.347215 H          1 MOL1         0.0751
      45    O11     19.501324   22.971080   21.206348 O.3        1 MOL1        -0.3740
      46    C14     17.458323   24.170359   21.790895 C.3        1 MOL1         0.1003
      47    H22     16.671042   24.784255   21.334347 H          1 MOL1         0.0783
      48    O12     18.012157   24.884016   22.905898 O.3        1 MOL1        -0.5519
      49    H23     18.755760   24.335307   23.263372 H          1 MOL1         0.3769
      50    C15     16.814607   22.840320   22.254854 C.3        1 MOL1         0.1053
      51    H24     17.589502   22.237945   22.749231 H          1 MOL1         0.0783
      52    O13     15.752879   23.110355   23.176250 O.3        1 MOL1        -0.5519
      53    H25     16.111562   23.789511   23.789876 H          1 MOL1         0.3769
      54    C16     16.271617   22.037765   21.045312 C.3        1 MOL1         0.1018
      55    H26     15.363654   22.533503   20.677636 H          1 MOL1         0.0783
      56    C17     17.303901   21.934078   19.885969 C.3        1 MOL1         0.1043
      57    H27     18.122758   21.284993   20.213871 H          1 MOL1         0.0783
      58    O14     17.834823   23.251321   19.597189 O.3        1 MOL1        -0.3740
      59    C18     16.754097   21.321135   18.570841 C.3        1 MOL1         0.0138
      60    H28     16.950711   20.242199   18.581320 H          1 MOL1         0.0794
      61    H29     17.324828   21.734113   17.728403 H          1 MOL1         0.0794
      62    O15     15.353729   21.552499   18.373409 O.3        1 MOL1        -0.5486
      63    H30     14.871089   20.973001   19.008303 H          1 MOL1         0.3769
      64    C19     23.486403   22.561148   22.294477 C.3        1 MOL1         0.2972
      65    H31     24.528301   22.733760   22.593502 H          1 MOL1         0.0751
      66    O16     23.251349   21.160647   22.034797 O.3        1 MOL1        -0.3740
      67    C20     22.541190   23.070586   23.412895 C.3        1 MOL1         0.1003
      68    H32     22.708153   24.152842   23.490657 H          1 MOL1         0.0783
      69    O17     22.836618   22.484787   24.690312 O.3        1 MOL1        -0.5519
      70    H33     22.817342   21.492904   24.609899 H          1 MOL1         0.3769
      71    C21     21.059321   22.867382   23.029403 C.3        1 MOL1         0.1053
      72    H34     20.861560   21.792731   22.950075 H          1 MOL1         0.0783
      73    O18     20.232520   23.442085   24.045952 O.3        1 MOL1        -0.5519
      74    H35     20.632991   23.140639   24.892617 H          1 MOL1         0.3769
      75    C22     20.756709   23.516541   21.657147 C.3        1 MOL1         0.1018
      76    H36     20.713694   24.606914   21.780649 H          1 MOL1         0.0783
      77    C23     21.817748   23.136094   20.586758 C.3        1 MOL1         0.1043
      78    H37     21.656947   22.079689   20.342162 H          1 MOL1         0.0783
      79    O19     23.169753   23.303085   21.095502 O.3        1 MOL1        -0.3740
      80    C24     21.683659   23.944330   19.273770 C.3        1 MOL1         0.0138
      81    H38     20.768049   23.623014   18.758865 H          1 MOL1         0.0794
      82    H39     22.529722   23.697339   18.618655 H          1 MOL1         0.0794
      83    O20     21.635816   25.356115   19.514076 O.3        1 MOL1        -0.5486
      84    H40     21.630914   25.807104   18.641768 H          1 MOL1         0.3769
      85    C25     25.115451   17.683025   20.727052 C.3        1 MOL1         0.2972
      86    H41     25.757467   16.899524   20.304530 H          1 MOL1         0.0751
      87    O21     23.791774   17.184238   21.023466 O.3        1 MOL1        -0.3740
      88    C26     25.746921   18.313405   21.994809 C.3        1 MOL1         0.1003
      89    H42     26.657829   18.836684   21.676974 H          1 MOL1         0.0783
      90    O22     26.113978   17.306667   22.948692 O.3        1 MOL1        -0.5519
      91    H43     25.272401   16.958476   23.334259 H          1 MOL1         0.3769
      92    C27     24.777180   19.372398   22.584939 C.3        1 MOL1         0.1053
      93    H44     23.861823   18.855422   22.903379 H          1 MOL1         0.0783
      94    O23     25.369373   20.033755   23.707921 O.3        1 MOL1        -0.5519
      95    H45     24.652225   20.052264   24.394997 H          1 MOL1         0.3769
      96    C28     24.386483   20.427579   21.512996 C.3        1 MOL1         0.1018
      97    H46     25.254698   21.081311   21.359087 H          1 MOL1         0.0783
      98    C29     23.994570   19.780274   20.146736 C.3        1 MOL1         0.1043
      99    H47     23.015251   19.303508   20.261099 H          1 MOL1         0.0783
     100    O24     24.964890   18.764636   19.783893 O.3        1 MOL1        -0.3740
     101    C30     23.878054   20.761597   18.951101 C.3        1 MOL1         0.0138
     102    H48     22.841843   21.110157   18.880696 H          1 MOL1         0.0794
     103    H49     24.078337   20.205229   18.025661 H          1 MOL1         0.0794
     104    O25     24.765012   21.882622   19.043926 O.3        1 MOL1        -0.5486
     105    H50     24.400435   22.483152   19.736195 H          1 MOL1         0.3769
     106    C31     21.345500   13.989730   21.774411 C.3        1 MOL1         0.2972
     107    H51     20.862584   13.024938   21.977202 H          1 MOL1         0.0751
     108    O26     20.381190   15.009386   21.453916 O.3        1 MOL1        -0.3740
     109    C32     22.140644   14.454740   23.015453 C.3        1 MOL1         0.1003
     110    H52     22.920437   13.706519   23.207707 H          1 MOL1         0.0783
     111    O27     21.274888   14.542860   24.159326 O.3        1 MOL1        -0.5519
     112    H53     20.353393   14.407719   23.831193 H          1 MOL1         0.3769
     113    C33     22.833262   15.811586   22.746491 C.3        1 MOL1         0.1053
     114    H54     22.053363   16.578625   22.656264 H          1 MOL1         0.0783
     115    O28     23.693625   16.119775   23.847840 O.3        1 MOL1        -0.5519
     116    H55     23.115660   16.171357   24.644287 H          1 MOL1         0.3769
     117    C34     23.644980   15.806136   21.421377 C.3        1 MOL1         0.1018
     118    H56     24.613297   15.318223   21.594165 H          1 MOL1         0.0783
     119    C35     22.893249   15.115494   20.246520 C.3        1 MOL1         0.1043
     120    H57     22.113852   15.807883   19.905196 H          1 MOL1         0.0783
     121    O29     22.264420   13.878324   20.668672 O.3        1 MOL1        -0.3740
     122    C36     23.798582   14.818553   19.027570 C.3        1 MOL1         0.0138
     123    H58     24.076548   15.773071   18.560416 H          1 MOL1         0.0794
     124    H59     23.217408   14.250661   18.288595 H          1 MOL1         0.0794
     125    O30     24.979929   14.095755   19.395542 O.3        1 MOL1        -0.5486
     126    H60     25.467793   13.881860   18.570413 H          1 MOL1         0.3769
     127    C1      22.456648   18.685332   25.499493 C.2        1 MOL1         0.6173
     128    O1      22.970974   19.737705   25.162428 O.co2      1 MOL1        -0.6755
     129    O2      22.894251   17.980294   26.387623 O.co2      1 MOL1        -0.6755
     130    C2      21.256654   18.189380   24.774126 C.2        1 MOL1        -0.1504
     131    H1      20.831835   17.256143   25.136366 H          1 MOL1         0.0814
     132    C3      20.713313   18.816672   23.708888 C.2        1 MOL1        -0.1394
     133    H2      21.152543   19.736370   23.335219 H          1 MOL1         0.0817
     134    C4      19.510844   18.286681   22.957534 C.3        1 MOL1        -0.1849
     135    H3      18.662019   18.198974   23.647957 H          1 MOL1         0.0736
     136    H4      19.724066   17.273875   22.600087 H          1 MOL1         0.0736
     137    C5      19.098469   19.171029   21.761182 C.3        1 MOL1        -0.1866
     138    H5      18.179196   18.767517   21.321460 H          1 MOL1         0.0738
     139    H6      18.861390   20.181749   22.118738 H          1 MOL1         0.0738
     140    C6      20.183123   19.242001   20.667263 C.3        1 MOL1        -0.2879
     141    H7      20.525088   18.238633   20.383143 H          1 MOL1         0.0750
     142    H8      19.803848   19.743435   19.768846 H          1 MOL1         0.0750
     143    H9      21.045797   19.810751   21.028508 H          1 MOL1         0.0750
@<TRIPOS>BOND
    1     1     2    1
    2     1     3    1
    3     1     4    1
    4     4     5    1
    5     4     6    1
    6     6     7    1
    7     4     8    1
    8     8     9    1
    9     8    10    1
   10    10    11    1
   11     8    12    1
   12    12    13    1
   13    12    14    1
   14    14    15    1
   15     1    16    1
   16    14    16    1
   17    14    17    1
   18    17    18    1
   19    17    19    1
   20    17    20    1
   21    20    21    1
   22    22    23    1
   23    22    24    1
   24    22    25    1
   25    25    26    1
   26    25    27    1
   27    27    28    1
   28    25    29    1
   29    29    30    1
   30    29    31    1
   31    31    32    1
   32     3    33    1
   33    29    33    1
   34    33    34    1
   35    33    35    1
   36    35    36    1
   37    22    37    1
   38    35    37    1
   39    35    38    1
   40    38    39    1
   41    38    40    1
   42    38    41    1
   43    41    42    1
   44    43    44    1
   45    43    45    1
   46    43    46    1
   47    46    47    1
   48    46    48    1
   49    48    49    1
   50    46    50    1
   51    50    51    1
   52    50    52    1
   53    52    53    1
   54    24    54    1
   55    50    54    1
   56    54    55    1
   57    54    56    1
   58    56    57    1
   59    43    58    1
   60    56    58    1
   61    56    59    1
   62    59    60    1
   63    59    61    1
   64    59    62    1
   65    62    63    1
   66    64    65    1
   67    64    66    1
   68    64    67    1
   69    67    68    1
   70    67    69    1
   71    69    70    1
   72    67    71    1
   73    71    72    1
   74    71    73    1
   75    73    74    1
   76    45    75    1
   77    71    75    1
   78    75    76    1
   79    75    77    1
   80    77    78    1
   81    64    79    1
   82    77    79    1
   83    77    80    1
   84    80    81    1
   85    80    82    1
   86    80    83    1
   87    83    84    1
   88    85    86    1
   89    85    87    1
   90    85    88    1
   91    88    89    1
   92    88    90    1
   93    90    91    1
   94    88    92    1
   95    92    93    1
   96    92    94    1
   97    94    95    1
   98    66    96    1
   99    92    96    1
  100    96    97    1
  101    96    98    1
  102    98    99    1
  103    85   100    1
  104    98   100    1
  105    98   101    1
  106   101   102    1
  107   101   103    1
  108   101   104    1
  109   104   105    1
  110   106   107    1
  111    12   108    1
  112   106   108    1
  113   106   109    1
  114   109   110    1
  115   109   111    1
  116   111   112    1
  117   109   113    1
  118   113   114    1
  119   113   115    1
  120   115   116    1
  121    87   117    1
  122   113   117    1
  123   117   118    1
  124   117   119    1
  125   119   120    1
  126   106   121    1
  127   119   121    1
  128   119   122    1
  129   122   123    1
  130   122   124    1
  131   122   125    1
  132   125   126    1
  133   127   128    1
  134   127   129    2
  135   127   130    1
  136   130   131    1
  137   130   132    2
  138   132   133    1
  139   132   134    1
  140   134   135    1
  141   134   136    1
  142   134   137    1
  143   137   138    1
  144   137   139    1
  145   137   140    1
  146   140   141    1
  147   140   142    1
  148   140   143    1
@<TRIPOS>SUBSTRUCTURE
       1 MOL1            1 RESIDUE      1      MOL     
       2 MOL1          143 RESIDUE      1      MOL     
@<SCITEGIC>MOL_PROPERTY
feprocess Rank
SciTegic.value.IntegerValue
14

@<SCITEGIC>MOL_PROPERTY
Conf_Id
SciTegic.value.IntegerValue
603

@<SCITEGIC>MOL_PROPERTY
Probability
SciTegic.value.DoubleValue
0.43

@<SCITEGIC>MOL_PROPERTY
G
SciTegic.value.DoubleValue
497.862

@<SCITEGIC>MOL_PROPERTY
E
SciTegic.value.DoubleValue
314.878

@<SCITEGIC>MOL_PROPERTY
-TS
SciTegic.value.DoubleValue
182.984

@<SCITEGIC>MOL_PROPERTY
U+W
SciTegic.value.DoubleValue
188.790

@<SCITEGIC>MOL_PROPERTY
U
SciTegic.value.DoubleValue
268.805

@<SCITEGIC>MOL_PROPERTY
W
SciTegic.value.DoubleValue
-80.014

@<SCITEGIC>MOL_PROPERTY
W(PB)
SciTegic.value.DoubleValue
-86.049

@<SCITEGIC>MOL_PROPERTY
W(SA)
SciTegic.value.DoubleValue
6.035

@<SCITEGIC>MOL_PROPERTY
Valence
SciTegic.value.DoubleValue
150.316

@<SCITEGIC>MOL_PROPERTY
Coulomb
SciTegic.value.DoubleValue
142.383

@<SCITEGIC>MOL_PROPERTY
VdW
SciTegic.value.DoubleValue
-23.895

@<SCITEGIC>MOL_PROPERTY
VdW6
SciTegic.value.DoubleValue
-183.114

@<SCITEGIC>MOL_PROPERTY
VdW12
SciTegic.value.DoubleValue
159.219

@<SCITEGIC>MOL_PROPERTY
Bond
SciTegic.value.DoubleValue
5.080

@<SCITEGIC>MOL_PROPERTY
Angle
SciTegic.value.DoubleValue
14.934

@<SCITEGIC>MOL_PROPERTY
Pdih
SciTegic.value.DoubleValue
130.296

@<SCITEGIC>MOL_PROPERTY
Idih
SciTegic.value.DoubleValue
0.006

@<SCITEGIC>MOL_PROPERTY
Tether
SciTegic.value.DoubleValue
0.000

@<TRIPOS>MOLECULE
CD_guest-s19_fast_vm2_rndm.mol2 : feprocess host+ligand conformer 15
         143         148           2
SMALL
USER_CHARGES
 
@<TRIPOS>ATOM
       1    C1      16.145657   15.129138   20.322058 C.3        1 MOL1         0.2972
       2    H1      15.124206   15.095808   19.921985 H          1 MOL1         0.0751
       3    O1      16.518035   16.475239   20.698592 O.3        1 MOL1        -0.3740
       4    C2      16.310795   14.156103   21.516543 C.3        1 MOL1         0.1003
       5    H2      16.190804   13.138178   21.124050 H          1 MOL1         0.0783
       6    O2      15.305700   14.377478   22.516399 O.3        1 MOL1        -0.5519
       7    H3      15.580660   15.190440   23.008111 H          1 MOL1         0.3769
       8    C3      17.747959   14.276286   22.084803 C.3        1 MOL1         0.1053
       9    H4      17.876090   15.292262   22.482834 H          1 MOL1         0.0783
      10    O3      17.953462   13.327395   23.135974 O.3        1 MOL1        -0.5519
      11    H5      18.628823   13.751684   23.727885 H          1 MOL1         0.3769
      12    C4      18.817974   14.053013   20.979443 C.3        1 MOL1         0.1018
      13    H6      18.875928   12.973286   20.792569 H          1 MOL1         0.0783
      14    C5      18.486720   14.806283   19.647738 C.3        1 MOL1         0.1043
      15    H7      18.717784   15.866772   19.790383 H          1 MOL1         0.0783
      16    O4      17.078693   14.678629   19.320994 O.3        1 MOL1        -0.3740
      17    C6      19.273087   14.335013   18.397767 C.3        1 MOL1         0.0138
      18    H8      20.262688   14.804387   18.392311 H          1 MOL1         0.0794
      19    H9      18.751557   14.708673   17.506457 H          1 MOL1         0.0794
      20    O5      19.400118   12.910204   18.319079 O.3        1 MOL1        -0.5486
      21    H10     20.265712   12.671668   18.713566 H          1 MOL1         0.3769
      22    C7      15.077617   20.145362   21.999305 C.3        1 MOL1         0.2972
      23    H11     14.469480   20.983959   22.362631 H          1 MOL1         0.0751
      24    O6      16.388154   20.578344   21.595509 O.3        1 MOL1        -0.3740
      25    C8      15.238772   19.086565   23.115269 C.3        1 MOL1         0.1003
      26    H12     14.233284   18.729368   23.372947 H          1 MOL1         0.0783
      27    O7      15.847576   19.660646   24.284017 O.3        1 MOL1        -0.5519
      28    H13     16.079328   20.594357   24.058244 H          1 MOL1         0.3769
      29    C9      16.061294   17.876107   22.616587 C.3        1 MOL1         0.1053
      30    H14     17.089320   18.208886   22.429923 H          1 MOL1         0.0783
      31    O8      16.056049   16.881415   23.643425 O.3        1 MOL1        -0.5519
      32    H15     16.367331   17.354433   24.447240 H          1 MOL1         0.3769
      33    C10     15.494846   17.308995   21.286859 C.3        1 MOL1         0.1018
      34    H16     14.577359   16.746033   21.502715 H          1 MOL1         0.0783
      35    C11     15.192078   18.429333   20.250564 C.3        1 MOL1         0.1043
      36    H17     16.152153   18.813969   19.884728 H          1 MOL1         0.0783
      37    O9      14.449720   19.516493   20.862255 O.3        1 MOL1        -0.3740
      38    C12     14.402204   17.929514   19.017471 C.3        1 MOL1         0.0138
      39    H18     15.061952   17.286004   18.419788 H          1 MOL1         0.0794
      40    H19     14.139179   18.795174   18.394780 H          1 MOL1         0.0794
      41    O10     13.222827   17.204498   19.388044 O.3        1 MOL1        -0.5486
      42    H20     12.736723   16.984653   18.563543 H          1 MOL1         0.3769
      43    C13     18.534616   24.142449   21.215660 C.3        1 MOL1         0.2972
      44    H21     18.814049   25.187280   21.029642 H          1 MOL1         0.0751
      45    O11     19.685572   23.333875   21.521906 O.3        1 MOL1        -0.3740
      46    C14     17.594867   24.060877   22.444956 C.3        1 MOL1         0.1003
      47    H22     16.706084   24.667123   22.226664 H          1 MOL1         0.0783
      48    O12     18.255557   24.583685   23.608375 O.3        1 MOL1        -0.5519
      49    H23     19.209354   24.343477   23.519078 H          1 MOL1         0.3769
      50    C15     17.135305   22.603617   22.695336 C.3        1 MOL1         0.1053
      51    H24     18.010895   22.009300   22.991788 H          1 MOL1         0.0783
      52    O13     16.160156   22.588951   23.742775 O.3        1 MOL1        -0.5519
      53    H25     16.521662   23.188357   24.434024 H          1 MOL1         0.3769
      54    C16     16.550891   21.992194   21.398479 C.3        1 MOL1         0.1018
      55    H26     15.596021   22.483108   21.168488 H          1 MOL1         0.0783
      56    C17     17.514100   22.172418   20.196223 C.3        1 MOL1         0.1043
      57    H27     18.425738   21.595608   20.397761 H          1 MOL1         0.0783
      58    O14     17.858343   23.575497   20.069660 O.3        1 MOL1        -0.3740
      59    C18     16.942012   21.657274   18.849186 C.3        1 MOL1         0.0138
      60    H28     17.187526   20.591166   18.757428 H          1 MOL1         0.0794
      61    H29     17.452356   22.174957   18.026389 H          1 MOL1         0.0794
      62    O15     15.523554   21.828932   18.735535 O.3        1 MOL1        -0.5486
      63    H30     15.104383   21.220003   19.385526 H          1 MOL1         0.3769
      64    C19     23.704074   22.786001   20.772640 C.3        1 MOL1         0.2972
      65    H31     24.757655   22.828511   20.467652 H          1 MOL1         0.0751
      66    O16     23.341412   21.480255   21.266941 O.3        1 MOL1        -0.3740
      67    C20     23.387227   23.838445   21.865770 C.3        1 MOL1         0.1003
      68    H32     23.551157   24.829155   21.422196 H          1 MOL1         0.0783
      69    O17     24.242670   23.692527   23.009368 O.3        1 MOL1        -0.5519
      70    H33     24.110710   22.774674   23.358441 H          1 MOL1         0.3769
      71    C21     21.899053   23.740025   22.280132 C.3        1 MOL1         0.1053
      72    H34     21.745947   22.770600   22.775178 H          1 MOL1         0.0783
      73    O18     21.581087   24.799185   23.189747 O.3        1 MOL1        -0.5519
      74    H35     22.320061   24.813005   23.837613 H          1 MOL1         0.3769
      75    C22     20.959168   23.807442   21.048300 C.3        1 MOL1         0.1018
      76    H36     20.914345   24.851712   20.713097 H          1 MOL1         0.0783
      77    C23     21.428754   22.893821   19.874984 C.3        1 MOL1         0.1043
      78    H37     21.254315   21.850534   20.159925 H          1 MOL1         0.0783
      79    O19     22.847816   23.084231   19.648369 O.3        1 MOL1        -0.3740
      80    C24     20.688508   23.103776   18.529232 C.3        1 MOL1         0.0138
      81    H38     19.812611   22.444163   18.508344 H          1 MOL1         0.0794
      82    H39     21.348045   22.776480   17.714433 H          1 MOL1         0.0794
      83    O20     20.274721   24.456693   18.310805 O.3        1 MOL1        -0.5486
      84    H40     19.395789   24.553110   18.741966 H          1 MOL1         0.3769
      85    C25     24.754931   17.774534   22.357088 C.3        1 MOL1         0.2972
      86    H41     25.339578   16.896444   22.661248 H          1 MOL1         0.0751
      87    O21     23.402865   17.414513   22.013698 O.3        1 MOL1        -0.3740
      88    C26     24.709084   18.799272   23.514624 C.3        1 MOL1         0.1003
      89    H42     25.741105   19.110341   23.722666 H          1 MOL1         0.0783
      90    O22     24.146954   18.200983   24.692824 O.3        1 MOL1        -0.5519
      91    H43     23.642934   17.408206   24.390614 H          1 MOL1         0.3769
      92    C27     23.903410   20.053244   23.107005 C.3        1 MOL1         0.1053
      93    H44     22.853464   19.757595   22.991099 H          1 MOL1         0.0783
      94    O23     24.010191   21.034094   24.143084 O.3        1 MOL1        -0.5519
      95    H45     23.835250   20.537845   24.974160 H          1 MOL1         0.3769
      96    C28     24.400268   20.638803   21.759567 C.3        1 MOL1         0.1018
      97    H46     25.327560   21.199631   21.937102 H          1 MOL1         0.0783
      98    C29     24.627108   19.549971   20.672636 C.3        1 MOL1         0.1043
      99    H47     23.638478   19.215306   20.337270 H          1 MOL1         0.0783
     100    O24     25.351788   18.413362   21.209408 O.3        1 MOL1        -0.3740
     101    C30     25.380321   20.068363   19.424244 C.3        1 MOL1         0.0138
     102    H48     24.714184   20.744348   18.871137 H          1 MOL1         0.0794
     103    H49     25.598599   19.216538   18.766098 H          1 MOL1         0.0794
     104    O25     26.589896   20.754139   19.770647 O.3        1 MOL1        -0.5486
     105    H50     27.052619   20.982803   18.935068 H          1 MOL1         0.3769
     106    C31     21.272474   13.872463   21.188337 C.3        1 MOL1         0.2972
     107    H51     21.064685   12.845262   20.864689 H          1 MOL1         0.0751
     108    O26     20.053696   14.557252   21.539550 O.3        1 MOL1        -0.3740
     109    C32     22.215259   13.844151   22.425693 C.3        1 MOL1         0.1003
     110    H52     23.111585   13.285319   22.127399 H          1 MOL1         0.0783
     111    O27     21.601490   13.174001   23.535437 O.3        1 MOL1        -0.5519
     112    H53     20.865822   13.768031   23.848837 H          1 MOL1         0.3769
     113    C33     22.664491   15.265068   22.846189 C.3        1 MOL1         0.1053
     114    H54     21.790880   15.803576   23.232785 H          1 MOL1         0.0783
     115    O28     23.664522   15.168617   23.865937 O.3        1 MOL1        -0.5519
     116    H55     23.302687   14.528102   24.517989 H          1 MOL1         0.3769
     117    C34     23.212816   16.041980   21.627009 C.3        1 MOL1         0.1018
     118    H56     24.154833   15.579890   21.302614 H          1 MOL1         0.0783
     119    C35     22.208460   16.003839   20.447821 C.3        1 MOL1         0.1043
     120    H57     21.283403   16.504697   20.760496 H          1 MOL1         0.0783
     121    O29     21.930718   14.616033   20.137934 O.3        1 MOL1        -0.3740
     122    C36     22.704708   16.716936   19.163991 C.3        1 MOL1         0.0138
     123    H58     22.427783   17.776629   19.231143 H          1 MOL1         0.0794
     124    H59     22.166688   16.304290   18.300689 H          1 MOL1         0.0794
     125    O30     24.119749   16.598157   18.965204 O.3        1 MOL1        -0.5486
     126    H60     24.562063   17.081320   19.700820 H          1 MOL1         0.3769
     127    C1      19.412093   15.885939   25.321356 C.2        1 MOL1         0.6173
     128    O1      19.721328   14.988382   24.557386 O.co2      1 MOL1        -0.6755
     129    O2      19.118994   15.689112   26.484793 O.co2      1 MOL1        -0.6755
     130    C2      19.412681   17.300189   24.850835 C.2        1 MOL1        -0.1504
     131    H1      19.168648   18.044866   25.604568 H          1 MOL1         0.0814
     132    C3      19.698262   17.689336   23.587445 C.2        1 MOL1        -0.1394
     133    H2      19.933719   16.953815   22.821939 H          1 MOL1         0.0817
     134    C4      19.718366   19.144018   23.157782 C.3        1 MOL1        -0.1849
     135    H3      20.337742   19.713315   23.863494 H          1 MOL1         0.0736
     136    H4      18.710708   19.572907   23.226591 H          1 MOL1         0.0736
     137    C5      20.278435   19.360439   21.734531 C.3        1 MOL1        -0.1866
     138    H5      20.407553   20.437041   21.576339 H          1 MOL1         0.0738
     139    H6      21.273628   18.908768   21.656056 H          1 MOL1         0.0738
     140    C6      19.371532   18.790499   20.626165 C.3        1 MOL1        -0.2879
     141    H7      18.386837   19.265728   20.642296 H          1 MOL1         0.0750
     142    H8      19.815072   18.953849   19.636239 H          1 MOL1         0.0750
     143    H9      19.220984   17.715619   20.762081 H          1 MOL1         0.0750
@<TRIPOS>BOND
    1     1     2    1
    2     1     3    1
    3     1     4    1
    4     4     5    1
    5     4     6    1
    6     6     7    1
    7     4     8    1
    8     8     9    1
    9     8    10    1
   10    10    11    1
   11     8    12    1
   12    12    13    1
   13    12    14    1
   14    14    15    1
   15     1    16    1
   16    14    16    1
   17    14    17    1
   18    17    18    1
   19    17    19    1
   20    17    20    1
   21    20    21    1
   22    22    23    1
   23    22    24    1
   24    22    25    1
   25    25    26    1
   26    25    27    1
   27    27    28    1
   28    25    29    1
   29    29    30    1
   30    29    31    1
   31    31    32    1
   32     3    33    1
   33    29    33    1
   34    33    34    1
   35    33    35    1
   36    35    36    1
   37    22    37    1
   38    35    37    1
   39    35    38    1
   40    38    39    1
   41    38    40    1
   42    38    41    1
   43    41    42    1
   44    43    44    1
   45    43    45    1
   46    43    46    1
   47    46    47    1
   48    46    48    1
   49    48    49    1
   50    46    50    1
   51    50    51    1
   52    50    52    1
   53    52    53    1
   54    24    54    1
   55    50    54    1
   56    54    55    1
   57    54    56    1
   58    56    57    1
   59    43    58    1
   60    56    58    1
   61    56    59    1
   62    59    60    1
   63    59    61    1
   64    59    62    1
   65    62    63    1
   66    64    65    1
   67    64    66    1
   68    64    67    1
   69    67    68    1
   70    67    69    1
   71    69    70    1
   72    67    71    1
   73    71    72    1
   74    71    73    1
   75    73    74    1
   76    45    75    1
   77    71    75    1
   78    75    76    1
   79    75    77    1
   80    77    78    1
   81    64    79    1
   82    77    79    1
   83    77    80    1
   84    80    81    1
   85    80    82    1
   86    80    83    1
   87    83    84    1
   88    85    86    1
   89    85    87    1
   90    85    88    1
   91    88    89    1
   92    88    90    1
   93    90    91    1
   94    88    92    1
   95    92    93    1
   96    92    94    1
   97    94    95    1
   98    66    96    1
   99    92    96    1
  100    96    97    1
  101    96    98    1
  102    98    99    1
  103    85   100    1
  104    98   100    1
  105    98   101    1
  106   101   102    1
  107   101   103    1
  108   101   104    1
  109   104   105    1
  110   106   107    1
  111    12   108    1
  112   106   108    1
  113   106   109    1
  114   109   110    1
  115   109   111    1
  116   111   112    1
  117   109   113    1
  118   113   114    1
  119   113   115    1
  120   115   116    1
  121    87   117    1
  122   113   117    1
  123   117   118    1
  124   117   119    1
  125   119   120    1
  126   106   121    1
  127   119   121    1
  128   119   122    1
  129   122   123    1
  130   122   124    1
  131   122   125    1
  132   125   126    1
  133   127   128    1
  134   127   129    2
  135   127   130    1
  136   130   131    1
  137   130   132    2
  138   132   133    1
  139   132   134    1
  140   134   135    1
  141   134   136    1
  142   134   137    1
  143   137   138    1
  144   137   139    1
  145   137   140    1
  146   140   141    1
  147   140   142    1
  148   140   143    1
@<TRIPOS>SUBSTRUCTURE
       1 MOL1            1 RESIDUE      1      MOL     
       2 MOL1          143 RESIDUE      1      MOL     
@<SCITEGIC>MOL_PROPERTY
feprocess Rank
SciTegic.value.IntegerValue
15

@<SCITEGIC>MOL_PROPERTY
Conf_Id
SciTegic.value.IntegerValue
259

@<SCITEGIC>MOL_PROPERTY
Probability
SciTegic.value.DoubleValue
0.41

@<SCITEGIC>MOL_PROPERTY
G
SciTegic.value.DoubleValue
497.890

@<SCITEGIC>MOL_PROPERTY
E
SciTegic.value.DoubleValue
316.817

@<SCITEGIC>MOL_PROPERTY
-TS
SciTegic.value.DoubleValue
181.073

@<SCITEGIC>MOL_PROPERTY
U+W
SciTegic.value.DoubleValue
190.729

@<SCITEGIC>MOL_PROPERTY
U
SciTegic.value.DoubleValue
270.721

@<SCITEGIC>MOL_PROPERTY
W
SciTegic.value.DoubleValue
-79.992

@<SCITEGIC>MOL_PROPERTY
W(PB)
SciTegic.value.DoubleValue
-86.047

@<SCITEGIC>MOL_PROPERTY
W(SA)
SciTegic.value.DoubleValue
6.055

@<SCITEGIC>MOL_PROPERTY
Valence
SciTegic.value.DoubleValue
150.036

@<SCITEGIC>MOL_PROPERTY
Coulomb
SciTegic.value.DoubleValue
145.285

@<SCITEGIC>MOL_PROPERTY
VdW
SciTegic.value.DoubleValue
-24.601

@<SCITEGIC>MOL_PROPERTY
VdW6
SciTegic.value.DoubleValue
-182.123

@<SCITEGIC>MOL_PROPERTY
VdW12
SciTegic.value.DoubleValue
157.522

@<SCITEGIC>MOL_PROPERTY
Bond
SciTegic.value.DoubleValue
4.988

@<SCITEGIC>MOL_PROPERTY
Angle
SciTegic.value.DoubleValue
15.044

@<SCITEGIC>MOL_PROPERTY
Pdih
SciTegic.value.DoubleValue
130.003

@<SCITEGIC>MOL_PROPERTY
Idih
SciTegic.value.DoubleValue
0.002

@<SCITEGIC>MOL_PROPERTY
Tether
SciTegic.value.DoubleValue
0.000

@<TRIPOS>MOLECULE
CD_guest-s19_fast_vm2_rndm.mol2 : feprocess host+ligand conformer 16
         143         148           2
SMALL
USER_CHARGES
 
@<TRIPOS>ATOM
       1    C1      16.314073   15.319598   21.792203 C.3        1 MOL1         0.2972
       2    H1      15.241987   15.210096   22.001892 H          1 MOL1         0.0751
       3    O1      16.660358   16.685561   21.499226 O.3        1 MOL1        -0.3740
       4    C2      17.137606   14.867073   23.019127 C.3        1 MOL1         0.1003
       5    H2      16.915965   13.806066   23.193093 H          1 MOL1         0.0783
       6    O2      16.769635   15.626058   24.182566 O.3        1 MOL1        -0.5519
       7    H3      16.217980   16.382556   23.866876 H          1 MOL1         0.3769
       8    C3      18.651377   15.002150   22.740184 C.3        1 MOL1         0.1053
       9    H4      18.886882   16.069471   22.645963 H          1 MOL1         0.0783
      10    O3      19.372148   14.444785   23.842640 O.3        1 MOL1        -0.5519
      11    H5      18.945355   14.831426   24.639753 H          1 MOL1         0.3769
      12    C4      19.055203   14.304597   21.415160 C.3        1 MOL1         0.1018
      13    H6      19.096935   13.220082   21.582282 H          1 MOL1         0.0783
      14    C5      18.084188   14.632315   20.244202 C.3        1 MOL1         0.1043
      15    H7      18.273910   15.669378   19.940836 H          1 MOL1         0.0783
      16    O4      16.699703   14.510357   20.661860 O.3        1 MOL1        -0.3740
      17    C6      18.299934   13.745787   18.994567 C.3        1 MOL1         0.0138
      18    H8      19.254895   14.025899   18.529615 H          1 MOL1         0.0794
      19    H9      17.506741   13.965117   18.267159 H          1 MOL1         0.0794
      20    O5      18.308164   12.349881   19.318196 O.3        1 MOL1        -0.5486
      21    H10     18.369433   11.848846   18.475731 H          1 MOL1         0.3769
      22    C7      14.775165   20.325017   20.727654 C.3        1 MOL1         0.2972
      23    H11     14.088063   21.114039   20.395764 H          1 MOL1         0.0751
      24    O6      16.022165   20.862276   21.202582 O.3        1 MOL1        -0.3740
      25    C8      14.163040   19.495616   21.887633 C.3        1 MOL1         0.1003
      26    H12     13.247611   19.024043   21.507350 H          1 MOL1         0.0783
      27    O7      13.829948   20.331712   23.007182 O.3        1 MOL1        -0.5519
      28    H13     14.614499   20.908555   23.191202 H          1 MOL1         0.3769
      29    C9      15.137197   18.370303   22.321128 C.3        1 MOL1         0.1053
      30    H14     16.036162   18.834842   22.749803 H          1 MOL1         0.0783
      31    O8      14.507993   17.539732   23.302500 O.3        1 MOL1        -0.5519
      32    H15     14.065806   18.165145   23.919465 H          1 MOL1         0.3769
      33    C10     15.565333   17.523845   21.096566 C.3        1 MOL1         0.1018
      34    H16     14.703327   16.934890   20.756296 H          1 MOL1         0.0783
      35    C11     16.065423   18.405260   19.921820 C.3        1 MOL1         0.1043
      36    H17     17.000378   18.890163   20.226074 H          1 MOL1         0.0783
      37    O9      15.067775   19.418116   19.638467 O.3        1 MOL1        -0.3740
      38    C12     16.378489   17.618635   18.621970 C.3        1 MOL1         0.0138
      39    H18     17.429681   17.304989   18.655418 H          1 MOL1         0.0794
      40    H19     16.278347   18.299875   17.766570 H          1 MOL1         0.0794
      41    O10     15.542830   16.468176   18.437990 O.3        1 MOL1        -0.5486
      42    H20     15.791940   15.812628   19.129821 H          1 MOL1         0.3769
      43    C13     18.371418   24.178805   21.604541 C.3        1 MOL1         0.2972
      44    H21     18.837194   25.169192   21.689258 H          1 MOL1         0.0751
      45    O11     19.353765   23.126200   21.570707 O.3        1 MOL1        -0.3740
      46    C14     17.440478   23.927256   22.813171 C.3        1 MOL1         0.1003
      47    H22     16.635407   24.672651   22.776310 H          1 MOL1         0.0783
      48    O12     18.164749   24.067651   24.045848 O.3        1 MOL1        -0.5519
      49    H23     19.121970   23.940529   23.831600 H          1 MOL1         0.3769
      50    C15     16.802870   22.523449   22.715579 C.3        1 MOL1         0.1053
      51    H24     17.604631   21.784254   22.836801 H          1 MOL1         0.0783
      52    O13     15.842500   22.360391   23.763659 O.3        1 MOL1        -0.5519
      53    H25     16.295645   22.689642   24.571976 H          1 MOL1         0.3769
      54    C16     16.130925   22.289601   21.338279 C.3        1 MOL1         0.1018
      55    H26     15.150981   22.784780   21.335198 H          1 MOL1         0.0783
      56    C17     16.994038   22.779998   20.139383 C.3        1 MOL1         0.1043
      57    H27     17.802639   22.051803   20.000577 H          1 MOL1         0.0783
      58    O14     17.576927   24.083286   20.404434 O.3        1 MOL1        -0.3740
      59    C18     16.213481   22.851774   18.805581 C.3        1 MOL1         0.0138
      60    H28     15.989991   21.827837   18.476798 H          1 MOL1         0.0794
      61    H29     16.861721   23.304623   18.043303 H          1 MOL1         0.0794
      62    O15     14.996624   23.597773   18.932917 O.3        1 MOL1        -0.5486
      63    H30     14.589081   23.657310   18.041346 H          1 MOL1         0.3769
      64    C19     23.471335   22.594166   21.079015 C.3        1 MOL1         0.2972
      65    H31     24.523747   22.743662   20.805511 H          1 MOL1         0.0751
      66    O16     23.230125   21.258952   21.566618 O.3        1 MOL1        -0.3740
      67    C20     23.049794   23.583392   22.197568 C.3        1 MOL1         0.1003
      68    H32     23.211576   24.599300   21.814546 H          1 MOL1         0.0783
      69    O17     23.843497   23.395222   23.380187 O.3        1 MOL1        -0.5519
      70    H33     23.879069   22.420867   23.561092 H          1 MOL1         0.3769
      71    C21     21.543415   23.432095   22.526179 C.3        1 MOL1         0.1053
      72    H34     21.385796   22.441666   22.975854 H          1 MOL1         0.0783
      73    O18     21.147599   24.452782   23.448496 O.3        1 MOL1        -0.5519
      74    H35     21.856878   24.469083   24.129497 H          1 MOL1         0.3769
      75    C22     20.693416   23.522502   21.235028 C.3        1 MOL1         0.1018
      76    H36     20.733841   24.552230   20.855865 H          1 MOL1         0.0783
      77    C23     21.215686   22.559585   20.134793 C.3        1 MOL1         0.1043
      78    H37     21.088817   21.526414   20.479343 H          1 MOL1         0.0783
      79    O19     22.623828   22.820649   19.929279 O.3        1 MOL1        -0.3740
      80    C24     20.479933   22.671687   18.773914 C.3        1 MOL1         0.0138
      81    H38     19.640730   21.964952   18.775772 H          1 MOL1         0.0794
      82    H39     21.163984   22.346869   17.978668 H          1 MOL1         0.0794
      83    O20     19.994249   23.991401   18.496687 O.3        1 MOL1        -0.5486
      84    H40     19.229055   24.151775   19.096893 H          1 MOL1         0.3769
      85    C25     25.115006   17.568595   21.919661 C.3        1 MOL1         0.2972
      86    H41     25.841096   16.748789   21.990234 H          1 MOL1         0.0751
      87    O21     23.760036   17.068153   21.921433 O.3        1 MOL1        -0.3740
      88    C26     25.312851   18.539775   23.110274 C.3        1 MOL1         0.1003
      89    H42     26.293418   19.012991   22.970820 H          1 MOL1         0.0783
      90    O22     25.342619   17.840539   24.363806 O.3        1 MOL1        -0.5519
      91    H43     24.413683   17.596388   24.615054 H          1 MOL1         0.3769
      92    C27     24.246464   19.662525   23.048117 C.3        1 MOL1         0.1053
      93    H44     23.245837   19.211679   23.077244 H          1 MOL1         0.0783
      94    O23     24.390958   20.568716   24.147415 O.3        1 MOL1        -0.5519
      95    H45     24.024315   20.069944   24.924898 H          1 MOL1         0.3769
      96    C28     24.388812   20.414067   21.703709 C.3        1 MOL1         0.1018
      97    H46     25.320236   20.994965   21.731479 H          1 MOL1         0.0783
      98    C29     24.400167   19.437031   20.492358 C.3        1 MOL1         0.1043
      99    H47     23.383393   19.036847   20.390750 H          1 MOL1         0.0783
     100    O24     25.323033   18.334587   20.712897 O.3        1 MOL1        -0.3740
     101    C30     24.775858   20.115873   19.152903 C.3        1 MOL1         0.0138
     102    H48     23.943768   20.761046   18.841333 H          1 MOL1         0.0794
     103    H49     24.890695   19.339917   18.384391 H          1 MOL1         0.0794
     104    O25     25.977925   20.888711   19.260427 O.3        1 MOL1        -0.5486
     105    H50     26.187886   21.238532   18.367329 H          1 MOL1         0.3769
     106    C31     21.366410   13.914512   20.650323 C.3        1 MOL1         0.2972
     107    H51     20.939644   12.999411   20.220041 H          1 MOL1         0.0751
     108    O26     20.336109   14.847410   21.039817 O.3        1 MOL1        -0.3740
     109    C32     22.269702   13.595390   21.869345 C.3        1 MOL1         0.1003
     110    H52     23.108692   12.989760   21.503599 H          1 MOL1         0.0783
     111    O27     21.551382   12.838203   22.855334 O.3        1 MOL1        -0.5519
     112    H53     20.871669   13.443777   23.242858 H          1 MOL1         0.3769
     113    C33     22.853043   14.909573   22.453857 C.3        1 MOL1         0.1053
     114    H54     22.018810   15.499652   22.855077 H          1 MOL1         0.0783
     115    O28     23.783941   14.623792   23.503504 O.3        1 MOL1        -0.5519
     116    H55     23.631986   15.330131   24.185674 H          1 MOL1         0.3769
     117    C34     23.559154   15.753423   21.355987 C.3        1 MOL1         0.1018
     118    H56     24.511501   15.262908   21.116641 H          1 MOL1         0.0783
     119    C35     22.701527   15.879968   20.058100 C.3        1 MOL1         0.1043
     120    H57     21.853233   16.541953   20.271909 H          1 MOL1         0.0783
     121    O29     22.202131   14.573453   19.677919 O.3        1 MOL1        -0.3740
     122    C36     23.429426   16.466837   18.820646 C.3        1 MOL1         0.0138
     123    H58     23.280772   17.551816   18.805715 H          1 MOL1         0.0794
     124    H59     22.943650   16.077263   17.915993 H          1 MOL1         0.0794
     125    O30     24.829047   16.167398   18.785878 O.3        1 MOL1        -0.5486
     126    H60     25.268203   16.802944   19.398438 H          1 MOL1         0.3769
     127    C1      22.286909   17.773209   25.217681 C.2        1 MOL1         0.6173
     128    O1      22.777436   18.773449   25.708586 O.co2      1 MOL1        -0.6755
     129    O2      22.875035   16.709079   25.187330 O.co2      1 MOL1        -0.6755
     130    C2      21.009818   17.871818   24.464342 C.2        1 MOL1        -0.1504
     131    H1      20.657509   16.953424   24.004989 H          1 MOL1         0.0814
     132    C3      20.322919   19.023622   24.299049 C.2        1 MOL1        -0.1394
     133    H2      20.680341   19.953549   24.740241 H          1 MOL1         0.0817
     134    C4      19.062288   19.139006   23.470086 C.3        1 MOL1        -0.1849
     135    H3      18.367836   19.826183   23.970231 H          1 MOL1         0.0736
     136    H4      18.543045   18.174819   23.404912 H          1 MOL1         0.0736
     137    C5      19.371346   19.673818   22.056222 C.3        1 MOL1        -0.1866
     138    H5      18.434714   19.940016   21.556779 H          1 MOL1         0.0738
     139    H6      19.950131   20.599223   22.150977 H          1 MOL1         0.0738
     140    C6      20.143336   18.665926   21.178858 C.3        1 MOL1        -0.2879
     141    H7      21.116929   18.425549   21.624762 H          1 MOL1         0.0750
     142    H8      20.322395   19.080185   20.179179 H          1 MOL1         0.0750
     143    H9      19.577645   17.732823   21.064963 H          1 MOL1         0.0750
@<TRIPOS>BOND
    1     1     2    1
    2     1     3    1
    3     1     4    1
    4     4     5    1
    5     4     6    1
    6     6     7    1
    7     4     8    1
    8     8     9    1
    9     8    10    1
   10    10    11    1
   11     8    12    1
   12    12    13    1
   13    12    14    1
   14    14    15    1
   15     1    16    1
   16    14    16    1
   17    14    17    1
   18    17    18    1
   19    17    19    1
   20    17    20    1
   21    20    21    1
   22    22    23    1
   23    22    24    1
   24    22    25    1
   25    25    26    1
   26    25    27    1
   27    27    28    1
   28    25    29    1
   29    29    30    1
   30    29    31    1
   31    31    32    1
   32     3    33    1
   33    29    33    1
   34    33    34    1
   35    33    35    1
   36    35    36    1
   37    22    37    1
   38    35    37    1
   39    35    38    1
   40    38    39    1
   41    38    40    1
   42    38    41    1
   43    41    42    1
   44    43    44    1
   45    43    45    1
   46    43    46    1
   47    46    47    1
   48    46    48    1
   49    48    49    1
   50    46    50    1
   51    50    51    1
   52    50    52    1
   53    52    53    1
   54    24    54    1
   55    50    54    1
   56    54    55    1
   57    54    56    1
   58    56    57    1
   59    43    58    1
   60    56    58    1
   61    56    59    1
   62    59    60    1
   63    59    61    1
   64    59    62    1
   65    62    63    1
   66    64    65    1
   67    64    66    1
   68    64    67    1
   69    67    68    1
   70    67    69    1
   71    69    70    1
   72    67    71    1
   73    71    72    1
   74    71    73    1
   75    73    74    1
   76    45    75    1
   77    71    75    1
   78    75    76    1
   79    75    77    1
   80    77    78    1
   81    64    79    1
   82    77    79    1
   83    77    80    1
   84    80    81    1
   85    80    82    1
   86    80    83    1
   87    83    84    1
   88    85    86    1
   89    85    87    1
   90    85    88    1
   91    88    89    1
   92    88    90    1
   93    90    91    1
   94    88    92    1
   95    92    93    1
   96    92    94    1
   97    94    95    1
   98    66    96    1
   99    92    96    1
  100    96    97    1
  101    96    98    1
  102    98    99    1
  103    85   100    1
  104    98   100    1
  105    98   101    1
  106   101   102    1
  107   101   103    1
  108   101   104    1
  109   104   105    1
  110   106   107    1
  111    12   108    1
  112   106   108    1
  113   106   109    1
  114   109   110    1
  115   109   111    1
  116   111   112    1
  117   109   113    1
  118   113   114    1
  119   113   115    1
  120   115   116    1
  121    87   117    1
  122   113   117    1
  123   117   118    1
  124   117   119    1
  125   119   120    1
  126   106   121    1
  127   119   121    1
  128   119   122    1
  129   122   123    1
  130   122   124    1
  131   122   125    1
  132   125   126    1
  133   127   128    1
  134   127   129    2
  135   127   130    1
  136   130   131    1
  137   130   132    2
  138   132   133    1
  139   132   134    1
  140   134   135    1
  141   134   136    1
  142   134   137    1
  143   137   138    1
  144   137   139    1
  145   137   140    1
  146   140   141    1
  147   140   142    1
  148   140   143    1
@<TRIPOS>SUBSTRUCTURE
       1 MOL1            1 RESIDUE      1      MOL     
       2 MOL1          143 RESIDUE      1      MOL     
@<SCITEGIC>MOL_PROPERTY
feprocess Rank
SciTegic.value.IntegerValue
16

@<SCITEGIC>MOL_PROPERTY
Conf_Id
SciTegic.value.IntegerValue
682

@<SCITEGIC>MOL_PROPERTY
Probability
SciTegic.value.DoubleValue
0.40

@<SCITEGIC>MOL_PROPERTY
G
SciTegic.value.DoubleValue
497.900

@<SCITEGIC>MOL_PROPERTY
E
SciTegic.value.DoubleValue
313.570

@<SCITEGIC>MOL_PROPERTY
-TS
SciTegic.value.DoubleValue
184.330

@<SCITEGIC>MOL_PROPERTY
U+W
SciTegic.value.DoubleValue
187.481

@<SCITEGIC>MOL_PROPERTY
U
SciTegic.value.DoubleValue
264.443

@<SCITEGIC>MOL_PROPERTY
W
SciTegic.value.DoubleValue
-76.962

@<SCITEGIC>MOL_PROPERTY
W(PB)
SciTegic.value.DoubleValue
-82.936

@<SCITEGIC>MOL_PROPERTY
W(SA)
SciTegic.value.DoubleValue
5.974

@<SCITEGIC>MOL_PROPERTY
Valence
SciTegic.value.DoubleValue
151.500

@<SCITEGIC>MOL_PROPERTY
Coulomb
SciTegic.value.DoubleValue
136.730

@<SCITEGIC>MOL_PROPERTY
VdW
SciTegic.value.DoubleValue
-23.786

@<SCITEGIC>MOL_PROPERTY
VdW6
SciTegic.value.DoubleValue
-183.200

@<SCITEGIC>MOL_PROPERTY
VdW12
SciTegic.value.DoubleValue
159.414

@<SCITEGIC>MOL_PROPERTY
Bond
SciTegic.value.DoubleValue
5.059

@<SCITEGIC>MOL_PROPERTY
Angle
SciTegic.value.DoubleValue
14.648

@<SCITEGIC>MOL_PROPERTY
Pdih
SciTegic.value.DoubleValue
131.738

@<SCITEGIC>MOL_PROPERTY
Idih
SciTegic.value.DoubleValue
0.055

@<SCITEGIC>MOL_PROPERTY
Tether
SciTegic.value.DoubleValue
0.000

@<TRIPOS>MOLECULE
CD_guest-s19_fast_vm2_rndm.mol2 : feprocess host+ligand conformer 17
         143         148           2
SMALL
USER_CHARGES
 
@<TRIPOS>ATOM
       1    C1      16.336829   15.371862   21.796055 C.3        1 MOL1         0.2972
       2    H1      15.277424   15.287851   22.069162 H          1 MOL1         0.0751
       3    O1      16.627903   16.641620   21.182123 O.3        1 MOL1        -0.3740
       4    C2      17.229206   15.219670   23.053495 C.3        1 MOL1         0.1003
       5    H2      17.023389   14.229437   23.479718 H          1 MOL1         0.0783
       6    O2      16.906099   16.227809   24.026219 O.3        1 MOL1        -0.5519
       7    H3      16.039857   16.619384   23.762656 H          1 MOL1         0.3769
       8    C3      18.732055   15.276843   22.678711 C.3        1 MOL1         0.1053
       9    H4      18.961801   16.296703   22.350901 H          1 MOL1         0.0783
      10    O3      19.524254   14.938203   23.823914 O.3        1 MOL1        -0.5519
      11    H5      19.598133   15.756936   24.383370 H          1 MOL1         0.3769
      12    C4      19.076160   14.320263   21.503658 C.3        1 MOL1         0.1018
      13    H6      19.125787   13.293393   21.888609 H          1 MOL1         0.0783
      14    C5      18.044235   14.392261   20.343860 C.3        1 MOL1         0.1043
      15    H7      18.187566   15.347562   19.822570 H          1 MOL1         0.0783
      16    O4      16.692849   14.332116   20.862525 O.3        1 MOL1        -0.3740
      17    C6      18.217444   13.269614   19.292693 C.3        1 MOL1         0.0138
      18    H8      19.140565   13.461141   18.729046 H          1 MOL1         0.0794
      19    H9      17.383243   13.325284   18.580576 H          1 MOL1         0.0794
      20    O5      18.275710   11.968754   19.891570 O.3        1 MOL1        -0.5486
      21    H10     18.308373   11.307743   19.165953 H          1 MOL1         0.3769
      22    C7      14.794652   20.319319   20.568243 C.3        1 MOL1         0.2972
      23    H11     14.142168   21.149458   20.268586 H          1 MOL1         0.0751
      24    O6      16.064814   20.783776   21.066699 O.3        1 MOL1        -0.3740
      25    C8      14.135814   19.458676   21.676787 C.3        1 MOL1         0.1003
      26    H12     13.219645   19.027424   21.252692 H          1 MOL1         0.0783
      27    O7      13.788817   20.251564   22.822307 O.3        1 MOL1        -0.5519
      28    H13     14.581262   20.799964   23.054277 H          1 MOL1         0.3769
      29    C9      15.067379   18.288393   22.084113 C.3        1 MOL1         0.1053
      30    H14     15.970004   18.710420   22.548305 H          1 MOL1         0.0783
      31    O8      14.380996   17.458670   23.027853 O.3        1 MOL1        -0.5519
      32    H15     13.909725   18.088671   23.619709 H          1 MOL1         0.3769
      33    C10     15.501823   17.468846   20.836719 C.3        1 MOL1         0.1018
      34    H16     14.654361   16.867119   20.484485 H          1 MOL1         0.0783
      35    C11     15.996286   18.383723   19.684806 C.3        1 MOL1         0.1043
      36    H17     16.947821   18.824117   19.999191 H          1 MOL1         0.0783
      37    O9      15.042807   19.446860   19.444381 O.3        1 MOL1        -0.3740
      38    C12     16.268793   17.634892   18.356850 C.3        1 MOL1         0.0138
      39    H18     17.217878   17.091110   18.454194 H          1 MOL1         0.0794
      40    H19     16.404306   18.377409   17.559406 H          1 MOL1         0.0794
      41    O10     15.222046   16.720518   18.008593 O.3        1 MOL1        -0.5486
      42    H20     15.277972   15.962285   18.629404 H          1 MOL1         0.3769
      43    C13     18.389036   24.140566   21.719395 C.3        1 MOL1         0.2972
      44    H21     18.784285   25.155147   21.857060 H          1 MOL1         0.0751
      45    O11     19.436397   23.152693   21.721461 O.3        1 MOL1        -0.3740
      46    C14     17.404110   23.801010   22.863546 C.3        1 MOL1         0.1003
      47    H22     16.571635   24.514329   22.805726 H          1 MOL1         0.0783
      48    O12     18.043811   23.925297   24.143852 O.3        1 MOL1        -0.5519
      49    H23     19.016462   23.817438   23.994423 H          1 MOL1         0.3769
      50    C15     16.827468   22.379130   22.680795 C.3        1 MOL1         0.1053
      51    H24     17.647326   21.658266   22.802733 H          1 MOL1         0.0783
      52    O13     15.829036   22.148157   23.678991 O.3        1 MOL1        -0.5519
      53    H25     16.234867   22.467739   24.516154 H          1 MOL1         0.3769
      54    C16     16.222735   22.200154   21.265604 C.3        1 MOL1         0.1018
      55    H26     15.264245   22.734036   21.222753 H          1 MOL1         0.0783
      56    C17     17.172511   22.711731   20.144738 C.3        1 MOL1         0.1043
      57    H27     18.014055   22.010358   20.074357 H          1 MOL1         0.0783
      58    O14     17.682577   24.033176   20.465786 O.3        1 MOL1        -0.3740
      59    C18     16.503254   22.767590   18.751118 C.3        1 MOL1         0.0138
      60    H28     16.334329   21.738759   18.405089 H          1 MOL1         0.0794
      61    H29     17.200081   23.239370   18.045450 H          1 MOL1         0.0794
      62    O15     15.260464   23.480990   18.778418 O.3        1 MOL1        -0.5486
      63    H30     14.920523   23.521986   17.858114 H          1 MOL1         0.3769
      64    C19     23.579463   22.808854   21.528348 C.3        1 MOL1         0.2972
      65    H31     24.652925   22.999492   21.403048 H          1 MOL1         0.0751
      66    O16     23.308178   21.420048   21.795216 O.3        1 MOL1        -0.3740
      67    C20     23.035726   23.622478   22.728629 C.3        1 MOL1         0.1003
      68    H32     23.199150   24.685836   22.510269 H          1 MOL1         0.0783
      69    O17     23.734302   23.273745   23.934701 O.3        1 MOL1        -0.5519
      70    H33     24.015447   22.329111   23.844347 H          1 MOL1         0.3769
      71    C21     21.514686   23.396086   22.897205 C.3        1 MOL1         0.1053
      72    H34     21.349190   22.349098   23.187900 H          1 MOL1         0.0783
      73    O18     21.013574   24.267971   23.915206 O.3        1 MOL1        -0.5519
      74    H35     21.662640   24.196689   24.650824 H          1 MOL1         0.3769
      75    C22     20.774418   23.654124   21.563063 C.3        1 MOL1         0.1018
      76    H36     20.792326   24.732117   21.355849 H          1 MOL1         0.0783
      77    C23     21.427074   22.897379   20.373894 C.3        1 MOL1         0.1043
      78    H37     21.289814   21.822173   20.535813 H          1 MOL1         0.0783
      79    O19     22.847816   23.190274   20.340548 O.3        1 MOL1        -0.3740
      80    C24     20.805336   23.223619   18.990946 C.3        1 MOL1         0.0138
      81    H38     19.942115   22.564175   18.834982 H          1 MOL1         0.0794
      82    H39     21.538614   22.981179   18.210305 H          1 MOL1         0.0794
      83    O20     20.383554   24.586724   18.867223 O.3        1 MOL1        -0.5486
      84    H40     19.518460   24.661400   19.331375 H          1 MOL1         0.3769
      85    C25     25.037495   17.616625   21.463546 C.3        1 MOL1         0.2972
      86    H41     25.779536   16.831448   21.271401 H          1 MOL1         0.0751
      87    O21     23.746755   17.040003   21.759052 O.3        1 MOL1        -0.3740
      88    C26     25.503094   18.482476   22.671519 C.3        1 MOL1         0.1003
      89    H42     26.531683   18.797382   22.453576 H          1 MOL1         0.0783
      90    O22     25.492036   17.723398   23.890028 O.3        1 MOL1        -0.5519
      91    H43     24.536933   17.541458   24.098614 H          1 MOL1         0.3769
      92    C27     24.650603   19.760188   22.867277 C.3        1 MOL1         0.1053
      93    H44     23.690062   19.460590   23.296727 H          1 MOL1         0.0783
      94    O23     25.311238   20.643540   23.780020 O.3        1 MOL1        -0.5519
      95    H45     25.563526   20.081611   24.546054 H          1 MOL1         0.3769
      96    C28     24.378475   20.496264   21.535344 C.3        1 MOL1         0.1018
      97    H46     25.300594   21.002739   21.221278 H          1 MOL1         0.0783
      98    C29     23.921171   19.523554   20.419226 C.3        1 MOL1         0.1043
      99    H47     22.956814   19.087594   20.704626 H          1 MOL1         0.0783
     100    O24     24.910429   18.476000   20.308303 O.3        1 MOL1        -0.3740
     101    C30     23.721670   20.176586   19.027363 C.3        1 MOL1         0.0138
     102    H48     22.700772   20.574688   18.975925 H          1 MOL1         0.0794
     103    H49     23.798228   19.395429   18.259746 H          1 MOL1         0.0794
     104    O25     24.654085   21.228534   18.754551 O.3        1 MOL1        -0.5486
     105    H50     24.287397   22.044078   19.165759 H          1 MOL1         0.3769
     106    C31     21.373015   13.757370   20.790482 C.3        1 MOL1         0.2972
     107    H51     20.951412   12.794383   20.475242 H          1 MOL1         0.0751
     108    O26     20.338753   14.755089   20.951268 O.3        1 MOL1        -0.3740
     109    C32     22.201399   13.606342   22.092909 C.3        1 MOL1         0.1003
     110    H52     23.069875   12.979071   21.854285 H          1 MOL1         0.0783
     111    O27     21.445619   12.957476   23.126040 O.3        1 MOL1        -0.5519
     112    H53     20.820399   13.636382   23.482093 H          1 MOL1         0.3769
     113    C33     22.728361   14.998303   22.525680 C.3        1 MOL1         0.1053
     114    H54     21.861835   15.640201   22.724133 H          1 MOL1         0.0783
     115    O28     23.527081   14.896615   23.708995 O.3        1 MOL1        -0.5519
     116    H55     23.375371   15.749300   24.192010 H          1 MOL1         0.3769
     117    C34     23.559970   15.651504   21.388460 C.3        1 MOL1         0.1018
     118    H56     24.518779   15.119689   21.337690 H          1 MOL1         0.0783
     119    C35     22.839547   15.568919   20.004112 C.3        1 MOL1         0.1043
     120    H57     22.020195   16.298505   20.000546 H          1 MOL1         0.0783
     121    O29     22.290511   14.241632   19.790317 O.3        1 MOL1        -0.3740
     122    C36     23.745065   15.873675   18.785843 C.3        1 MOL1         0.0138
     123    H58     23.902476   16.955347   18.719071 H          1 MOL1         0.0794
     124    H59     23.209757   15.577685   17.873709 H          1 MOL1         0.0794
     125    O30     25.005133   15.193862   18.859806 O.3        1 MOL1        -0.5486
     126    H60     25.513161   15.422091   18.051304 H          1 MOL1         0.3769
     127    C1      21.492489   17.646191   24.464452 C.2        1 MOL1         0.6173
     128    O1      22.687404   17.459716   24.629592 O.co2      1 MOL1        -0.6755
     129    O2      20.632933   17.179485   25.188714 O.co2      1 MOL1        -0.6755
     130    C2      21.079555   18.402959   23.251365 C.2        1 MOL1        -0.1504
     131    H1      21.881440   18.721951   22.600482 H          1 MOL1         0.0814
     132    C3      19.804311   18.687305   22.907396 C.2        1 MOL1        -0.1394
     133    H2      18.967383   18.378277   23.533605 H          1 MOL1         0.0817
     134    C4      19.451222   19.432023   21.638316 C.3        1 MOL1        -0.1849
     135    H3      20.004881   20.377071   21.612351 H          1 MOL1         0.0736
     136    H4      18.387368   19.693317   21.648506 H          1 MOL1         0.0736
     137    C5      19.767868   18.597271   20.377053 C.3        1 MOL1        -0.1866
     138    H5      20.791685   18.208813   20.436516 H          1 MOL1         0.0738
     139    H6      19.106245   17.721740   20.344577 H          1 MOL1         0.0738
     140    C6      19.619787   19.416542   19.078497 C.3        1 MOL1        -0.2879
     141    H7      18.625609   19.871722   18.999975 H          1 MOL1         0.0750
     142    H8      20.363561   20.219074   19.040426 H          1 MOL1         0.0750
     143    H9      19.771865   18.776020   18.200424 H          1 MOL1         0.0750
@<TRIPOS>BOND
    1     1     2    1
    2     1     3    1
    3     1     4    1
    4     4     5    1
    5     4     6    1
    6     6     7    1
    7     4     8    1
    8     8     9    1
    9     8    10    1
   10    10    11    1
   11     8    12    1
   12    12    13    1
   13    12    14    1
   14    14    15    1
   15     1    16    1
   16    14    16    1
   17    14    17    1
   18    17    18    1
   19    17    19    1
   20    17    20    1
   21    20    21    1
   22    22    23    1
   23    22    24    1
   24    22    25    1
   25    25    26    1
   26    25    27    1
   27    27    28    1
   28    25    29    1
   29    29    30    1
   30    29    31    1
   31    31    32    1
   32     3    33    1
   33    29    33    1
   34    33    34    1
   35    33    35    1
   36    35    36    1
   37    22    37    1
   38    35    37    1
   39    35    38    1
   40    38    39    1
   41    38    40    1
   42    38    41    1
   43    41    42    1
   44    43    44    1
   45    43    45    1
   46    43    46    1
   47    46    47    1
   48    46    48    1
   49    48    49    1
   50    46    50    1
   51    50    51    1
   52    50    52    1
   53    52    53    1
   54    24    54    1
   55    50    54    1
   56    54    55    1
   57    54    56    1
   58    56    57    1
   59    43    58    1
   60    56    58    1
   61    56    59    1
   62    59    60    1
   63    59    61    1
   64    59    62    1
   65    62    63    1
   66    64    65    1
   67    64    66    1
   68    64    67    1
   69    67    68    1
   70    67    69    1
   71    69    70    1
   72    67    71    1
   73    71    72    1
   74    71    73    1
   75    73    74    1
   76    45    75    1
   77    71    75    1
   78    75    76    1
   79    75    77    1
   80    77    78    1
   81    64    79    1
   82    77    79    1
   83    77    80    1
   84    80    81    1
   85    80    82    1
   86    80    83    1
   87    83    84    1
   88    85    86    1
   89    85    87    1
   90    85    88    1
   91    88    89    1
   92    88    90    1
   93    90    91    1
   94    88    92    1
   95    92    93    1
   96    92    94    1
   97    94    95    1
   98    66    96    1
   99    92    96    1
  100    96    97    1
  101    96    98    1
  102    98    99    1
  103    85   100    1
  104    98   100    1
  105    98   101    1
  106   101   102    1
  107   101   103    1
  108   101   104    1
  109   104   105    1
  110   106   107    1
  111    12   108    1
  112   106   108    1
  113   106   109    1
  114   109   110    1
  115   109   111    1
  116   111   112    1
  117   109   113    1
  118   113   114    1
  119   113   115    1
  120   115   116    1
  121    87   117    1
  122   113   117    1
  123   117   118    1
  124   117   119    1
  125   119   120    1
  126   106   121    1
  127   119   121    1
  128   119   122    1
  129   122   123    1
  130   122   124    1
  131   122   125    1
  132   125   126    1
  133   127   128    1
  134   127   129    2
  135   127   130    1
  136   130   131    1
  137   130   132    2
  138   132   133    1
  139   132   134    1
  140   134   135    1
  141   134   136    1
  142   134   137    1
  143   137   138    1
  144   137   139    1
  145   137   140    1
  146   140   141    1
  147   140   142    1
  148   140   143    1
@<TRIPOS>SUBSTRUCTURE
       1 MOL1            1 RESIDUE      1      MOL     
       2 MOL1          143 RESIDUE      1      MOL     
@<SCITEGIC>MOL_PROPERTY
feprocess Rank
SciTegic.value.IntegerValue
17

@<SCITEGIC>MOL_PROPERTY
Conf_Id
SciTegic.value.IntegerValue
453

@<SCITEGIC>MOL_PROPERTY
Probability
SciTegic.value.DoubleValue
0.29

@<SCITEGIC>MOL_PROPERTY
G
SciTegic.value.DoubleValue
498.093

@<SCITEGIC>MOL_PROPERTY
E
SciTegic.value.DoubleValue
314.127

@<SCITEGIC>MOL_PROPERTY
-TS
SciTegic.value.DoubleValue
183.966

@<SCITEGIC>MOL_PROPERTY
U+W
SciTegic.value.DoubleValue
188.039

@<SCITEGIC>MOL_PROPERTY
U
SciTegic.value.DoubleValue
268.756

@<SCITEGIC>MOL_PROPERTY
W
SciTegic.value.DoubleValue
-80.717

@<SCITEGIC>MOL_PROPERTY
W(PB)
SciTegic.value.DoubleValue
-86.726

@<SCITEGIC>MOL_PROPERTY
W(SA)
SciTegic.value.DoubleValue
6.008

@<SCITEGIC>MOL_PROPERTY
Valence
SciTegic.value.DoubleValue
150.383

@<SCITEGIC>MOL_PROPERTY
Coulomb
SciTegic.value.DoubleValue
143.264

@<SCITEGIC>MOL_PROPERTY
VdW
SciTegic.value.DoubleValue
-24.891

@<SCITEGIC>MOL_PROPERTY
VdW6
SciTegic.value.DoubleValue
-184.065

@<SCITEGIC>MOL_PROPERTY
VdW12
SciTegic.value.DoubleValue
159.174

@<SCITEGIC>MOL_PROPERTY
Bond
SciTegic.value.DoubleValue
5.066

@<SCITEGIC>MOL_PROPERTY
Angle
SciTegic.value.DoubleValue
14.010

@<SCITEGIC>MOL_PROPERTY
Pdih
SciTegic.value.DoubleValue
131.291

@<SCITEGIC>MOL_PROPERTY
Idih
SciTegic.value.DoubleValue
0.015

@<SCITEGIC>MOL_PROPERTY
Tether
SciTegic.value.DoubleValue
0.000

@<TRIPOS>MOLECULE
CD_guest-s19_fast_vm2_rndm.mol2 : feprocess host+ligand conformer 18
         143         148           2
SMALL
USER_CHARGES
 
@<TRIPOS>ATOM
       1    C1      16.319453   15.522485   20.378285 C.3        1 MOL1         0.2972
       2    H1      15.498734   15.233951   19.710249 H          1 MOL1         0.0751
       3    O1      15.943860   16.657359   21.179696 O.3        1 MOL1        -0.3740
       4    C2      16.670759   14.327030   21.303610 C.3        1 MOL1         0.1003
       5    H2      16.830747   13.463726   20.644725 H          1 MOL1         0.0783
       6    O2      15.584475   14.034785   22.196766 O.3        1 MOL1        -0.5519
       7    H3      15.499341   14.815714   22.809163 H          1 MOL1         0.3769
       8    C3      17.972010   14.536203   22.119695 C.3        1 MOL1         0.1053
       9    H4      17.758883   15.249622   22.920011 H          1 MOL1         0.0783
      10    O3      18.332042   13.272927   22.686016 O.3        1 MOL1        -0.5519
      11    H5      17.513278   12.939944   23.115717 H          1 MOL1         0.3769
      12    C4      19.132899   15.118958   21.264543 C.3        1 MOL1         0.1018
      13    H6      19.525722   14.330110   20.610531 H          1 MOL1         0.0783
      14    C5      18.635721   16.302540   20.391493 C.3        1 MOL1         0.1043
      15    H7      18.344340   17.127859   21.054467 H          1 MOL1         0.0783
      16    O4      17.494574   15.869287   19.618857 O.3        1 MOL1        -0.3740
      17    C6      19.691448   16.855607   19.405350 C.3        1 MOL1         0.0138
      18    H8      20.453040   17.396987   19.980571 H          1 MOL1         0.0794
      19    H9      19.206027   17.589185   18.747835 H          1 MOL1         0.0794
      20    O5      20.304003   15.824661   18.620093 O.3        1 MOL1        -0.5486
      21    H10     20.669574   15.156656   19.235569 H          1 MOL1         0.3769
      22    C7      14.614509   20.458839   20.533876 C.3        1 MOL1         0.2972
      23    H11     14.161663   21.426907   20.283950 H          1 MOL1         0.0751
      24    O6      15.958858   20.616563   21.034075 O.3        1 MOL1        -0.3740
      25    C8      13.743796   19.673648   21.544232 C.3        1 MOL1         0.1003
      26    H12     12.805395   19.416721   21.036166 H          1 MOL1         0.0783
      27    O7      13.439506   20.473237   22.696951 O.3        1 MOL1        -0.5519
      28    H13     14.267261   20.511436   23.236899 H          1 MOL1         0.3769
      29    C9      14.456411   18.351790   21.925643 C.3        1 MOL1         0.1053
      30    H14     15.359054   18.614418   22.491998 H          1 MOL1         0.0783
      31    O8      13.605195   17.543570   22.745150 O.3        1 MOL1        -0.5519
      32    H15     14.213928   16.934656   23.241723 H          1 MOL1         0.3769
      33    C10     14.893534   17.523630   20.682025 C.3        1 MOL1         0.1018
      34    H16     14.027529   16.932503   20.360257 H          1 MOL1         0.0783
      35    C11     15.417098   18.386313   19.480248 C.3        1 MOL1         0.1043
      36    H17     16.476579   18.613798   19.658685 H          1 MOL1         0.0783
      37    O9      14.684063   19.632312   19.361397 O.3        1 MOL1        -0.3740
      38    C12     15.303466   17.707577   18.088355 C.3        1 MOL1         0.0138
      39    H18     16.030729   16.893848   18.001633 H          1 MOL1         0.0794
      40    H19     15.580818   18.449575   17.327733 H          1 MOL1         0.0794
      41    O10     13.983339   17.216260   17.817887 O.3        1 MOL1        -0.5486
      42    H20     13.831114   16.419646   18.367244 H          1 MOL1         0.3769
      43    C13     18.659780   23.120640   22.879831 C.3        1 MOL1         0.2972
      44    H21     19.162686   23.936014   23.411556 H          1 MOL1         0.0751
      45    O11     19.623453   22.161729   22.374303 O.3        1 MOL1        -0.3740
      46    C14     17.703365   22.392239   23.852498 C.3        1 MOL1         0.1003
      47    H22     16.972810   23.132351   24.204298 H          1 MOL1         0.0783
      48    O12     18.417434   21.868285   24.983605 O.3        1 MOL1        -0.5519
      49    H23     19.154952   21.321645   24.632851 H          1 MOL1         0.3769
      50    C15     16.925765   21.270723   23.124840 C.3        1 MOL1         0.1053
      51    H24     17.634168   20.497653   22.811757 H          1 MOL1         0.0783
      52    O13     15.970898   20.712066   24.031327 O.3        1 MOL1        -0.5519
      53    H25     16.478184   20.515074   24.850387 H          1 MOL1         0.3769
      54    C16     16.233229   21.782431   21.837561 C.3        1 MOL1         0.1018
      55    H26     15.320751   22.328799   22.110411 H          1 MOL1         0.0783
      56    C17     17.164460   22.684595   20.980899 C.3        1 MOL1         0.1043
      57    H27     17.906680   22.035695   20.507987 H          1 MOL1         0.0783
      58    O14     17.856064   23.654774   21.803917 O.3        1 MOL1        -0.3740
      59    C18     16.428577   23.431676   19.844007 C.3        1 MOL1         0.0138
      60    H28     16.134018   22.698020   19.081349 H          1 MOL1         0.0794
      61    H29     17.133344   24.128252   19.370435 H          1 MOL1         0.0794
      62    O15     15.272028   24.133801   20.317027 O.3        1 MOL1        -0.5486
      63    H30     14.902194   24.641387   19.561934 H          1 MOL1         0.3769
      64    C19     23.386684   22.395259   20.434151 C.3        1 MOL1         0.2972
      65    H31     24.151587   22.655022   19.692326 H          1 MOL1         0.0751
      66    O16     23.911417   21.472771   21.407768 O.3        1 MOL1        -0.3740
      67    C20     22.925823   23.680853   21.164685 C.3        1 MOL1         0.1003
      68    H32     22.603248   24.391787   20.392682 H          1 MOL1         0.0783
      69    O17     24.019428   24.248120   21.901266 O.3        1 MOL1        -0.5519
      70    H33     24.429008   23.500693   22.393887 H          1 MOL1         0.3769
      71    C21     21.722810   23.433009   22.109089 C.3        1 MOL1         0.1053
      72    H34     22.076516   22.840010   22.962510 H          1 MOL1         0.0783
      73    O18     21.263018   24.711203   22.558049 O.3        1 MOL1        -0.5519
      74    H35     22.073640   25.196789   22.828666 H          1 MOL1         0.3769
      75    C22     20.588949   22.635381   21.400260 C.3        1 MOL1         0.1018
      76    H36     20.108769   23.273275   20.646862 H          1 MOL1         0.0783
      77    C23     21.173062   21.381329   20.693785 C.3        1 MOL1         0.1043
      78    H37     21.563237   20.697998   21.460060 H          1 MOL1         0.0783
      79    O19     22.238107   21.792183   19.802740 O.3        1 MOL1        -0.3740
      80    C24     20.148824   20.597683   19.843351 C.3        1 MOL1         0.0138
      81    H38     19.332403   20.247304   20.489028 H          1 MOL1         0.0794
      82    H39     20.646903   19.710435   19.432109 H          1 MOL1         0.0794
      83    O20     19.635435   21.404434   18.779836 O.3        1 MOL1        -0.5486
      84    H40     20.419029   21.761625   18.307217 H          1 MOL1         0.3769
      85    C25     25.300139   17.626985   21.031240 C.3        1 MOL1         0.2972
      86    H41     25.795411   16.662787   20.858259 H          1 MOL1         0.0751
      87    O21     23.930118   17.459546   21.441922 O.3        1 MOL1        -0.3740
      88    C26     26.058381   18.467627   22.083804 C.3        1 MOL1         0.1003
      89    H42     27.050733   18.689028   21.669657 H          1 MOL1         0.0783
      90    O22     26.215274   17.750784   23.318093 O.3        1 MOL1        -0.5519
      91    H43     25.306331   17.526890   23.643367 H          1 MOL1         0.3769
      92    C27     25.330953   19.810724   22.325760 C.3        1 MOL1         0.1053
      93    H44     24.390393   19.584792   22.845024 H          1 MOL1         0.0783
      94    O23     26.150886   20.634763   23.161107 O.3        1 MOL1        -0.5519
      95    H45     26.427158   20.055100   23.904754 H          1 MOL1         0.3769
      96    C28     24.979925   20.570974   21.013090 C.3        1 MOL1         0.1018
      97    H46     25.866151   21.141147   20.709629 H          1 MOL1         0.0783
      98    C29     24.536250   19.632714   19.833585 C.3        1 MOL1         0.1043
      99    H47     23.474849   19.386471   19.968661 H          1 MOL1         0.0783
     100    O24     25.304272   18.404049   19.824668 O.3        1 MOL1        -0.3740
     101    C30     24.710832   20.228278   18.409213 C.3        1 MOL1         0.0138
     102    H48     23.948729   20.991374   18.218537 H          1 MOL1         0.0794
     103    H49     24.525323   19.425203   17.683382 H          1 MOL1         0.0794
     104    O25     26.019192   20.774081   18.192141 O.3        1 MOL1        -0.5486
     105    H50     26.095768   21.609101   18.698772 H          1 MOL1         0.3769
     106    C31     21.124818   14.672757   22.637424 C.3        1 MOL1         0.2972
     107    H51     20.623861   13.774758   23.014072 H          1 MOL1         0.0751
     108    O26     20.166328   15.637149   22.139386 O.3        1 MOL1        -0.3740
     109    C32     21.941117   15.312699   23.787748 C.3        1 MOL1         0.1003
     110    H52     22.657962   14.557306   24.135056 H          1 MOL1         0.0783
     111    O27     21.086315   15.681291   24.880726 O.3        1 MOL1        -0.5519
     112    H53     20.376933   16.256618   24.515547 H          1 MOL1         0.3769
     113    C33     22.746743   16.534293   23.292178 C.3        1 MOL1         0.1053
     114    H54     22.040668   17.321214   23.007346 H          1 MOL1         0.0783
     115    O28     23.597761   17.001683   24.343632 O.3        1 MOL1        -0.5519
     116    H55     23.009961   17.100369   25.124611 H          1 MOL1         0.3769
     117    C34     23.589396   16.195947   22.042503 C.3        1 MOL1         0.1018
     118    H56     24.475924   15.626984   22.353418 H          1 MOL1         0.0783
     119    C35     22.783443   15.405802   20.976362 C.3        1 MOL1         0.1043
     120    H57     22.077576   16.107274   20.524416 H          1 MOL1         0.0783
     121    O29     22.041108   14.317002   21.578192 O.3        1 MOL1        -0.3740
     122    C36     23.658761   14.834938   19.834969 C.3        1 MOL1         0.0138
     123    H58     24.007179   15.669934   19.211887 H          1 MOL1         0.0794
     124    H59     23.034172   14.193228   19.199270 H          1 MOL1         0.0794
     125    O30     24.782361   14.099148   20.334216 O.3        1 MOL1        -0.5486
     126    H60     25.245254   13.702633   19.564040 H          1 MOL1         0.3769
     127    C1      16.449765   16.593952   24.882524 C.2        1 MOL1         0.6173
     128    O1      16.506860   16.346974   26.071967 O.co2      1 MOL1        -0.6755
     129    O2      15.593086   16.136250   24.146868 O.co2      1 MOL1        -0.6755
     130    C2      17.508491   17.436655   24.257821 C.2        1 MOL1        -0.1504
     131    H1      17.390811   17.632861   23.196310 H          1 MOL1         0.0814
     132    C3      18.585188   17.919279   24.916623 C.2        1 MOL1        -0.1394
     133    H2      18.722981   17.720113   25.979483 H          1 MOL1         0.0817
     134    C4      19.670512   18.724870   24.236312 C.3        1 MOL1        -0.1849
     135    H3      19.236843   19.596536   23.746414 H          1 MOL1         0.0736
     136    H4      20.116908   18.131254   23.432428 H          1 MOL1         0.0736
     137    C5      20.758093   19.196536   25.221553 C.3        1 MOL1        -0.1866
     138    H5      20.294240   19.749636   26.050035 H          1 MOL1         0.0738
     139    H6      21.260165   18.327925   25.666444 H          1 MOL1         0.0738
     140    C6      21.796909   20.097937   24.526668 C.3        1 MOL1        -0.2879
     141    H7      21.333358   21.025862   24.174059 H          1 MOL1         0.0750
     142    H8      22.603586   20.366508   25.220730 H          1 MOL1         0.0750
     143    H9      22.246511   19.591418   23.664617 H          1 MOL1         0.0750
@<TRIPOS>BOND
    1     1     2    1
    2     1     3    1
    3     1     4    1
    4     4     5    1
    5     4     6    1
    6     6     7    1
    7     4     8    1
    8     8     9    1
    9     8    10    1
   10    10    11    1
   11     8    12    1
   12    12    13    1
   13    12    14    1
   14    14    15    1
   15     1    16    1
   16    14    16    1
   17    14    17    1
   18    17    18    1
   19    17    19    1
   20    17    20    1
   21    20    21    1
   22    22    23    1
   23    22    24    1
   24    22    25    1
   25    25    26    1
   26    25    27    1
   27    27    28    1
   28    25    29    1
   29    29    30    1
   30    29    31    1
   31    31    32    1
   32     3    33    1
   33    29    33    1
   34    33    34    1
   35    33    35    1
   36    35    36    1
   37    22    37    1
   38    35    37    1
   39    35    38    1
   40    38    39    1
   41    38    40    1
   42    38    41    1
   43    41    42    1
   44    43    44    1
   45    43    45    1
   46    43    46    1
   47    46    47    1
   48    46    48    1
   49    48    49    1
   50    46    50    1
   51    50    51    1
   52    50    52    1
   53    52    53    1
   54    24    54    1
   55    50    54    1
   56    54    55    1
   57    54    56    1
   58    56    57    1
   59    43    58    1
   60    56    58    1
   61    56    59    1
   62    59    60    1
   63    59    61    1
   64    59    62    1
   65    62    63    1
   66    64    65    1
   67    64    66    1
   68    64    67    1
   69    67    68    1
   70    67    69    1
   71    69    70    1
   72    67    71    1
   73    71    72    1
   74    71    73    1
   75    73    74    1
   76    45    75    1
   77    71    75    1
   78    75    76    1
   79    75    77    1
   80    77    78    1
   81    64    79    1
   82    77    79    1
   83    77    80    1
   84    80    81    1
   85    80    82    1
   86    80    83    1
   87    83    84    1
   88    85    86    1
   89    85    87    1
   90    85    88    1
   91    88    89    1
   92    88    90    1
   93    90    91    1
   94    88    92    1
   95    92    93    1
   96    92    94    1
   97    94    95    1
   98    66    96    1
   99    92    96    1
  100    96    97    1
  101    96    98    1
  102    98    99    1
  103    85   100    1
  104    98   100    1
  105    98   101    1
  106   101   102    1
  107   101   103    1
  108   101   104    1
  109   104   105    1
  110   106   107    1
  111    12   108    1
  112   106   108    1
  113   106   109    1
  114   109   110    1
  115   109   111    1
  116   111   112    1
  117   109   113    1
  118   113   114    1
  119   113   115    1
  120   115   116    1
  121    87   117    1
  122   113   117    1
  123   117   118    1
  124   117   119    1
  125   119   120    1
  126   106   121    1
  127   119   121    1
  128   119   122    1
  129   122   123    1
  130   122   124    1
  131   122   125    1
  132   125   126    1
  133   127   128    1
  134   127   129    2
  135   127   130    1
  136   130   131    1
  137   130   132    2
  138   132   133    1
  139   132   134    1
  140   134   135    1
  141   134   136    1
  142   134   137    1
  143   137   138    1
  144   137   139    1
  145   137   140    1
  146   140   141    1
  147   140   142    1
  148   140   143    1
@<TRIPOS>SUBSTRUCTURE
       1 MOL1            1 RESIDUE      1      MOL     
       2 MOL1          143 RESIDUE      1      MOL     
@<SCITEGIC>MOL_PROPERTY
feprocess Rank
SciTegic.value.IntegerValue
18

@<SCITEGIC>MOL_PROPERTY
Conf_Id
SciTegic.value.IntegerValue
238

@<SCITEGIC>MOL_PROPERTY
Probability
SciTegic.value.DoubleValue
0.26

@<SCITEGIC>MOL_PROPERTY
G
SciTegic.value.DoubleValue
498.149

@<SCITEGIC>MOL_PROPERTY
E
SciTegic.value.DoubleValue
315.012

@<SCITEGIC>MOL_PROPERTY
-TS
SciTegic.value.DoubleValue
183.137

@<SCITEGIC>MOL_PROPERTY
U+W
SciTegic.value.DoubleValue
188.924

@<SCITEGIC>MOL_PROPERTY
U
SciTegic.value.DoubleValue
273.046

@<SCITEGIC>MOL_PROPERTY
W
SciTegic.value.DoubleValue
-84.122

@<SCITEGIC>MOL_PROPERTY
W(PB)
SciTegic.value.DoubleValue
-90.163

@<SCITEGIC>MOL_PROPERTY
W(SA)
SciTegic.value.DoubleValue
6.041

@<SCITEGIC>MOL_PROPERTY
Valence
SciTegic.value.DoubleValue
140.188

@<SCITEGIC>MOL_PROPERTY
Coulomb
SciTegic.value.DoubleValue
156.123

@<SCITEGIC>MOL_PROPERTY
VdW
SciTegic.value.DoubleValue
-23.265

@<SCITEGIC>MOL_PROPERTY
VdW6
SciTegic.value.DoubleValue
-177.619

@<SCITEGIC>MOL_PROPERTY
VdW12
SciTegic.value.DoubleValue
154.353

@<SCITEGIC>MOL_PROPERTY
Bond
SciTegic.value.DoubleValue
5.335

@<SCITEGIC>MOL_PROPERTY
Angle
SciTegic.value.DoubleValue
17.689

@<SCITEGIC>MOL_PROPERTY
Pdih
SciTegic.value.DoubleValue
117.153

@<SCITEGIC>MOL_PROPERTY
Idih
SciTegic.value.DoubleValue
0.011

@<SCITEGIC>MOL_PROPERTY
Tether
SciTegic.value.DoubleValue
0.000

@<TRIPOS>MOLECULE
CD_guest-s19_fast_vm2_rndm.mol2 : feprocess host+ligand conformer 19
         143         148           2
SMALL
USER_CHARGES
 
@<TRIPOS>ATOM
       1    C1      16.285885   15.252667   20.083873 C.3        1 MOL1         0.2972
       2    H1      15.314746   15.181063   19.577477 H          1 MOL1         0.0751
       3    O1      16.520409   16.583191   20.593129 O.3        1 MOL1        -0.3740
       4    C2      16.393593   14.226468   21.242653 C.3        1 MOL1         0.1003
       5    H2      16.331439   13.226875   20.793050 H          1 MOL1         0.0783
       6    O2      15.327218   14.369601   22.192449 O.3        1 MOL1        -0.5519
       7    H3      15.406960   15.276137   22.583779 H          1 MOL1         0.3769
       8    C3      17.770784   14.346765   21.939014 C.3        1 MOL1         0.1053
       9    H4      17.825830   15.328687   22.431449 H          1 MOL1         0.0783
      10    O3      17.904176   13.306721   22.914622 O.3        1 MOL1        -0.5519
      11    H5      17.058124   13.311549   23.414323 H          1 MOL1         0.3769
      12    C4      18.929185   14.250607   20.912862 C.3        1 MOL1         0.1018
      13    H6      19.023910   13.200211   20.608717 H          1 MOL1         0.0783
      14    C5      18.695237   15.144363   19.655453 C.3        1 MOL1         0.1043
      15    H7      18.802863   16.194091   19.948118 H          1 MOL1         0.0783
      16    O4      17.349261   14.939654   19.157829 O.3        1 MOL1        -0.3740
      17    C6      19.684121   14.912578   18.484464 C.3        1 MOL1         0.0138
      18    H8      20.560370   15.553713   18.634536 H          1 MOL1         0.0794
      19    H9      19.205478   15.247089   17.554357 H          1 MOL1         0.0794
      20    O5      20.105857   13.550421   18.357321 O.3        1 MOL1        -0.5486
      21    H10     20.881916   13.439490   18.950764 H          1 MOL1         0.3769
      22    C7      14.836185   20.216239   21.484426 C.3        1 MOL1         0.2972
      23    H11     14.216473   21.100204   21.682367 H          1 MOL1         0.0751
      24    O6      16.221547   20.575961   21.272959 O.3        1 MOL1        -0.3740
      25    C8      14.726797   19.183850   22.635234 C.3        1 MOL1         0.1003
      26    H12     13.692997   18.814184   22.635723 H          1 MOL1         0.0783
      27    O7      14.998555   19.767696   23.917068 O.3        1 MOL1        -0.5519
      28    H13     15.943586   20.062894   23.903800 H          1 MOL1         0.3769
      29    C9      15.656087   17.978109   22.353380 C.3        1 MOL1         0.1053
      30    H14     16.698479   18.327536   22.368629 H          1 MOL1         0.0783
      31    O8      15.461799   16.991534   23.371787 O.3        1 MOL1        -0.5519
      32    H15     15.539683   17.481159   24.220710 H          1 MOL1         0.3769
      33    C10     15.364233   17.364733   20.956319 C.3        1 MOL1         0.1018
      34    H16     14.460655   16.745781   21.033775 H          1 MOL1         0.0783
      35    C11     15.174794   18.435115   19.838684 C.3        1 MOL1         0.1043
      36    H17     16.160171   18.829097   19.571433 H          1 MOL1         0.0783
      37    O9      14.358964   19.539590   20.302605 O.3        1 MOL1        -0.3740
      38    C12     14.552554   17.869864   18.539850 C.3        1 MOL1         0.0138
      39    H18     15.297110   17.228409   18.049035 H          1 MOL1         0.0794
      40    H19     14.344454   18.706300   17.859262 H          1 MOL1         0.0794
      41    O10     13.356021   17.122273   18.792084 O.3        1 MOL1        -0.5486
      42    H20     12.977072   16.864581   17.923399 H          1 MOL1         0.3769
      43    C13     18.987449   23.625481   21.962486 C.3        1 MOL1         0.2972
      44    H21     19.476679   24.541294   22.308668 H          1 MOL1         0.0751
      45    O11     19.755774   22.947506   20.943062 O.3        1 MOL1        -0.3740
      46    C14     18.770384   22.653261   23.153852 C.3        1 MOL1         0.1003
      47    H22     18.131698   23.175533   23.877601 H          1 MOL1         0.0783
      48    O12     20.015405   22.329783   23.797364 O.3        1 MOL1        -0.5519
      49    H23     20.152107   21.349273   23.736969 H          1 MOL1         0.3769
      50    C15     18.012743   21.381068   22.696535 C.3        1 MOL1         0.1053
      51    H24     18.648206   20.830079   21.993139 H          1 MOL1         0.0783
      52    O13     17.719041   20.566568   23.838072 O.3        1 MOL1        -0.5519
      53    H25     18.576229   20.151927   24.114823 H          1 MOL1         0.3769
      54    C16     16.701737   21.754581   21.955667 C.3        1 MOL1         0.1018
      55    H26     15.976099   22.124763   22.692104 H          1 MOL1         0.0783
      56    C17     16.940348   22.835203   20.864726 C.3        1 MOL1         0.1043
      57    H27     17.519230   22.378029   20.051273 H          1 MOL1         0.0783
      58    O14     17.690499   23.946297   21.414349 O.3        1 MOL1        -0.3740
      59    C18     15.631397   23.385857   20.248988 C.3        1 MOL1         0.0138
      60    H28     15.182056   22.599159   19.627730 H          1 MOL1         0.0794
      61    H29     15.882307   24.223255   19.584265 H          1 MOL1         0.0794
      62    O15     14.695842   23.806573   21.250498 O.3        1 MOL1        -0.5486
      63    H30     13.928194   24.210158   20.789708 H          1 MOL1         0.3769
      64    C19     23.689917   22.591369   20.052322 C.3        1 MOL1         0.2972
      65    H31     24.729646   22.559970   19.702622 H          1 MOL1         0.0751
      66    O16     23.312347   21.354269   20.695671 O.3        1 MOL1        -0.3740
      67    C20     23.444759   23.802487   20.984281 C.3        1 MOL1         0.1003
      68    H32     23.579802   24.702980   20.370740 H          1 MOL1         0.0783
      69    O17     24.378062   23.850610   22.073807 O.3        1 MOL1        -0.5519
      70    H33     24.145556   23.099136   22.675240 H          1 MOL1         0.3769
      71    C21     21.989283   23.807923   21.510476 C.3        1 MOL1         0.1053
      72    H34     21.887099   22.975652   22.215456 H          1 MOL1         0.0783
      73    O18     21.778577   25.052914   22.186106 O.3        1 MOL1        -0.5519
      74    H35     22.536022   25.142759   22.805158 H          1 MOL1         0.3769
      75    C22     20.921804   23.605657   20.389177 C.3        1 MOL1         0.1018
      76    H36     20.655412   24.585549   19.975225 H          1 MOL1         0.0783
      77    C23     21.381835   22.656147   19.240306 C.3        1 MOL1         0.1043
      78    H37     21.203831   21.629927   19.579367 H          1 MOL1         0.0783
      79    O19     22.794852   22.795089   18.940009 O.3        1 MOL1        -0.3740
      80    C24     20.571447   22.823328   17.932391 C.3        1 MOL1         0.0138
      81    H38     19.538339   22.498313   18.116207 H          1 MOL1         0.0794
      82    H39     20.992210   22.146796   17.176759 H          1 MOL1         0.0794
      83    O20     20.582268   24.170992   17.443889 O.3        1 MOL1        -0.5486
      84    H40     20.005584   24.706904   18.028507 H          1 MOL1         0.3769
      85    C25     24.336970   18.056453   22.928066 C.3        1 MOL1         0.2972
      86    H41     24.819719   17.307977   23.569551 H          1 MOL1         0.0751
      87    O21     23.127989   17.526763   22.350869 O.3        1 MOL1        -0.3740
      88    C26     24.030256   19.323612   23.767781 C.3        1 MOL1         0.1003
      89    H42     24.987937   19.657174   24.187531 H          1 MOL1         0.0783
      90    O22     23.125284   19.037263   24.847709 O.3        1 MOL1        -0.5519
      91    H43     22.208636   19.001305   24.468333 H          1 MOL1         0.3769
      92    C27     23.467380   20.477660   22.911824 C.3        1 MOL1         0.1053
      93    H44     22.442765   20.211281   22.640717 H          1 MOL1         0.0783
      94    O23     23.463409   21.671103   23.702024 O.3        1 MOL1        -0.5519
      95    H45     22.888521   21.469149   24.473777 H          1 MOL1         0.3769
      96    C28     24.245243   20.710704   21.591549 C.3        1 MOL1         0.1018
      97    H46     25.131941   21.326148   21.790376 H          1 MOL1         0.0783
      98    C29     24.658630   19.387044   20.894254 C.3        1 MOL1         0.1043
      99    H47     23.748923   18.964148   20.454247 H          1 MOL1         0.0783
     100    O24     25.211366   18.435507   21.841698 O.3        1 MOL1        -0.3740
     101    C30     25.673311   19.593670   19.743891 C.3        1 MOL1         0.0138
     102    H48     25.164047   20.113787   18.921340 H          1 MOL1         0.0794
     103    H49     25.984367   18.611565   19.364119 H          1 MOL1         0.0794
     104    O25     26.816568   20.349308   20.161856 O.3        1 MOL1        -0.5486
     105    H50     27.445490   20.380835   19.408249 H          1 MOL1         0.3769
     106    C31     21.276447   13.893141   21.545554 C.3        1 MOL1         0.2972
     107    H51     21.027371   12.850635   21.310216 H          1 MOL1         0.0751
     108    O26     20.097648   14.716485   21.613509 O.3        1 MOL1        -0.3740
     109    C32     21.969233   13.966550   22.926204 C.3        1 MOL1         0.1003
     110    H52     22.879953   13.356137   22.870704 H          1 MOL1         0.0783
     111    O27     21.101075   13.435121   23.939536 O.3        1 MOL1        -0.5519
     112    H53     20.190569   13.745133   23.715355 H          1 MOL1         0.3769
     113    C33     22.386059   15.416690   23.276974 C.3        1 MOL1         0.1053
     114    H54     21.475856   15.996182   23.480873 H          1 MOL1         0.0783
     115    O28     23.215132   15.379183   24.443159 O.3        1 MOL1        -0.5519
     116    H55     22.694842   14.885976   25.114112 H          1 MOL1         0.3769
     117    C34     23.145149   16.101570   22.108887 C.3        1 MOL1         0.1018
     118    H56     24.168857   15.706062   22.086839 H          1 MOL1         0.0783
     119    C35     22.479604   15.850764   20.725642 C.3        1 MOL1         0.1043
     120    H57     21.544365   16.417727   20.698777 H          1 MOL1         0.0783
     121    O29     22.177610   14.442633   20.562927 O.3        1 MOL1        -0.3740
     122    C36     23.324574   16.308502   19.508223 C.3        1 MOL1         0.0138
     123    H58     23.079088   17.353508   19.285742 H          1 MOL1         0.0794
     124    H59     23.019869   15.724016   18.629996 H          1 MOL1         0.0794
     125    O30     24.736032   16.173311   19.716764 O.3        1 MOL1        -0.5486
     126    H60     24.989454   16.798661   20.434497 H          1 MOL1         0.3769
     127    C1      19.998300   18.477608   23.376044 C.2        1 MOL1         0.6173
     128    O1      19.541574   17.607388   24.087711 O.co2      1 MOL1        -0.6755
     129    O2      20.415368   19.537797   23.811168 O.co2      1 MOL1        -0.6755
     130    C2      19.971309   18.246415   21.908573 C.2        1 MOL1        -0.1504
     131    H1      19.548955   17.296859   21.604956 H          1 MOL1         0.0814
     132    C3      20.423967   19.124235   20.984108 C.2        1 MOL1        -0.1394
     133    H2      20.826300   20.089304   21.282233 H          1 MOL1         0.0817
     134    C4      20.382850   18.876935   19.492760 C.3        1 MOL1        -0.1849
     135    H3      20.621783   17.832321   19.270229 H          1 MOL1         0.0736
     136    H4      21.147719   19.482286   18.990515 H          1 MOL1         0.0736
     137    C5      18.991924   19.208247   18.927437 C.3        1 MOL1        -0.1866
     138    H5      18.257233   18.555357   19.411965 H          1 MOL1         0.0738
     139    H6      18.722047   20.242134   19.182644 H          1 MOL1         0.0738
     140    C6      18.927175   19.010992   17.400875 C.3        1 MOL1        -0.2879
     141    H7      19.644508   19.665906   16.889766 H          1 MOL1         0.0750
     142    H8      19.156027   17.972336   17.129881 H          1 MOL1         0.0750
     143    H9      17.923569   19.246356   17.024204 H          1 MOL1         0.0750
@<TRIPOS>BOND
    1     1     2    1
    2     1     3    1
    3     1     4    1
    4     4     5    1
    5     4     6    1
    6     6     7    1
    7     4     8    1
    8     8     9    1
    9     8    10    1
   10    10    11    1
   11     8    12    1
   12    12    13    1
   13    12    14    1
   14    14    15    1
   15     1    16    1
   16    14    16    1
   17    14    17    1
   18    17    18    1
   19    17    19    1
   20    17    20    1
   21    20    21    1
   22    22    23    1
   23    22    24    1
   24    22    25    1
   25    25    26    1
   26    25    27    1
   27    27    28    1
   28    25    29    1
   29    29    30    1
   30    29    31    1
   31    31    32    1
   32     3    33    1
   33    29    33    1
   34    33    34    1
   35    33    35    1
   36    35    36    1
   37    22    37    1
   38    35    37    1
   39    35    38    1
   40    38    39    1
   41    38    40    1
   42    38    41    1
   43    41    42    1
   44    43    44    1
   45    43    45    1
   46    43    46    1
   47    46    47    1
   48    46    48    1
   49    48    49    1
   50    46    50    1
   51    50    51    1
   52    50    52    1
   53    52    53    1
   54    24    54    1
   55    50    54    1
   56    54    55    1
   57    54    56    1
   58    56    57    1
   59    43    58    1
   60    56    58    1
   61    56    59    1
   62    59    60    1
   63    59    61    1
   64    59    62    1
   65    62    63    1
   66    64    65    1
   67    64    66    1
   68    64    67    1
   69    67    68    1
   70    67    69    1
   71    69    70    1
   72    67    71    1
   73    71    72    1
   74    71    73    1
   75    73    74    1
   76    45    75    1
   77    71    75    1
   78    75    76    1
   79    75    77    1
   80    77    78    1
   81    64    79    1
   82    77    79    1
   83    77    80    1
   84    80    81    1
   85    80    82    1
   86    80    83    1
   87    83    84    1
   88    85    86    1
   89    85    87    1
   90    85    88    1
   91    88    89    1
   92    88    90    1
   93    90    91    1
   94    88    92    1
   95    92    93    1
   96    92    94    1
   97    94    95    1
   98    66    96    1
   99    92    96    1
  100    96    97    1
  101    96    98    1
  102    98    99    1
  103    85   100    1
  104    98   100    1
  105    98   101    1
  106   101   102    1
  107   101   103    1
  108   101   104    1
  109   104   105    1
  110   106   107    1
  111    12   108    1
  112   106   108    1
  113   106   109    1
  114   109   110    1
  115   109   111    1
  116   111   112    1
  117   109   113    1
  118   113   114    1
  119   113   115    1
  120   115   116    1
  121    87   117    1
  122   113   117    1
  123   117   118    1
  124   117   119    1
  125   119   120    1
  126   106   121    1
  127   119   121    1
  128   119   122    1
  129   122   123    1
  130   122   124    1
  131   122   125    1
  132   125   126    1
  133   127   128    1
  134   127   129    2
  135   127   130    1
  136   130   131    1
  137   130   132    2
  138   132   133    1
  139   132   134    1
  140   134   135    1
  141   134   136    1
  142   134   137    1
  143   137   138    1
  144   137   139    1
  145   137   140    1
  146   140   141    1
  147   140   142    1
  148   140   143    1
@<TRIPOS>SUBSTRUCTURE
       1 MOL1            1 RESIDUE      1      MOL     
       2 MOL1          143 RESIDUE      1      MOL     
@<SCITEGIC>MOL_PROPERTY
feprocess Rank
SciTegic.value.IntegerValue
19

@<SCITEGIC>MOL_PROPERTY
Conf_Id
SciTegic.value.IntegerValue
105

@<SCITEGIC>MOL_PROPERTY
Probability
SciTegic.value.DoubleValue
0.26

@<SCITEGIC>MOL_PROPERTY
G
SciTegic.value.DoubleValue
498.165

@<SCITEGIC>MOL_PROPERTY
E
SciTegic.value.DoubleValue
314.348

@<SCITEGIC>MOL_PROPERTY
-TS
SciTegic.value.DoubleValue
183.817

@<SCITEGIC>MOL_PROPERTY
U+W
SciTegic.value.DoubleValue
188.260

@<SCITEGIC>MOL_PROPERTY
U
SciTegic.value.DoubleValue
258.529

@<SCITEGIC>MOL_PROPERTY
W
SciTegic.value.DoubleValue
-70.269

@<SCITEGIC>MOL_PROPERTY
W(PB)
SciTegic.value.DoubleValue
-76.167

@<SCITEGIC>MOL_PROPERTY
W(SA)
SciTegic.value.DoubleValue
5.898

@<SCITEGIC>MOL_PROPERTY
Valence
SciTegic.value.DoubleValue
148.140

@<SCITEGIC>MOL_PROPERTY
Coulomb
SciTegic.value.DoubleValue
136.342

@<SCITEGIC>MOL_PROPERTY
VdW
SciTegic.value.DoubleValue
-25.953

@<SCITEGIC>MOL_PROPERTY
VdW6
SciTegic.value.DoubleValue
-188.528

@<SCITEGIC>MOL_PROPERTY
VdW12
SciTegic.value.DoubleValue
162.575

@<SCITEGIC>MOL_PROPERTY
Bond
SciTegic.value.DoubleValue
5.286

@<SCITEGIC>MOL_PROPERTY
Angle
SciTegic.value.DoubleValue
17.224

@<SCITEGIC>MOL_PROPERTY
Pdih
SciTegic.value.DoubleValue
125.621

@<SCITEGIC>MOL_PROPERTY
Idih
SciTegic.value.DoubleValue
0.009

@<SCITEGIC>MOL_PROPERTY
Tether
SciTegic.value.DoubleValue
0.000

@<TRIPOS>MOLECULE
CD_guest-s19_fast_vm2_rndm.mol2 : feprocess host+ligand conformer 20
         143         148           2
SMALL
USER_CHARGES
 
@<TRIPOS>ATOM
       1    C1      16.185226   15.152344   21.434107 C.3        1 MOL1         0.2972
       2    H1      15.110802   14.967934   21.306448 H          1 MOL1         0.0751
       3    O1      16.459569   16.556392   21.604765 O.3        1 MOL1        -0.3740
       4    C2      16.689422   14.413234   22.698585 C.3        1 MOL1         0.1003
       5    H2      16.474621   13.344871   22.566170 H          1 MOL1         0.0783
       6    O2      15.999757   14.896872   23.861744 O.3        1 MOL1        -0.5519
       7    H3      15.773918   15.840745   23.679877 H          1 MOL1         0.3769
       8    C3      18.218155   14.576359   22.868725 C.3        1 MOL1         0.1053
       9    H4      18.427123   15.628628   23.104624 H          1 MOL1         0.0783
      10    O3      18.674518   13.740696   23.938692 O.3        1 MOL1        -0.5519
      11    H5      18.053198   13.913889   24.680304 H          1 MOL1         0.3769
      12    C4      18.963871   14.209813   21.563528 C.3        1 MOL1         0.1018
      13    H6      18.905169   13.122020   21.426879 H          1 MOL1         0.0783
      14    C5      18.354688   14.928877   20.328081 C.3        1 MOL1         0.1043
      15    H7      18.531516   16.004874   20.445053 H          1 MOL1         0.0783
      16    O4      16.926513   14.679552   20.288169 O.3        1 MOL1        -0.3740
      17    C6      18.960262   14.521055   18.961006 C.3        1 MOL1         0.0138
      18    H8      19.863072   15.120291   18.787628 H          1 MOL1         0.0794
      19    H9      18.246794   14.785311   18.169206 H          1 MOL1         0.0794
      20    O5      19.284808   13.129383   18.880707 O.3        1 MOL1        -0.5486
      21    H10     20.229064   13.046250   19.141494 H          1 MOL1         0.3769
      22    C7      14.981533   20.320231   20.581484 C.3        1 MOL1         0.2972
      23    H11     14.400568   21.159271   20.177617 H          1 MOL1         0.0751
      24    O6      16.235368   20.759099   21.135619 O.3        1 MOL1        -0.3740
      25    C8      14.187257   19.563746   21.679239 C.3        1 MOL1         0.1003
      26    H12     13.272404   19.178940   21.210233 H          1 MOL1         0.0783
      27    O7      13.825068   20.432851   22.763642 O.3        1 MOL1        -0.5519
      28    H13     14.662221   20.830203   23.115684 H          1 MOL1         0.3769
      29    C9      14.998887   18.353168   22.202728 C.3        1 MOL1         0.1053
      30    H14     15.878896   18.736829   22.735193 H          1 MOL1         0.0783
      31    O8      14.189577   17.583224   23.098262 O.3        1 MOL1        -0.5519
      32    H15     13.773815   18.240431   23.699297 H          1 MOL1         0.3769
      33    C10     15.489424   17.458055   21.036895 C.3        1 MOL1         0.1018
      34    H16     14.621084   16.925608   20.627248 H          1 MOL1         0.0783
      35    C11     16.164435   18.285749   19.905071 C.3        1 MOL1         0.1043
      36    H17     17.108689   18.691275   20.290604 H          1 MOL1         0.0783
      37    O9      15.283537   19.375160   19.533464 O.3        1 MOL1        -0.3740
      38    C12     16.507223   17.495957   18.616030 C.3        1 MOL1         0.0138
      39    H18     17.511747   17.071955   18.722514 H          1 MOL1         0.0794
      40    H19     16.553887   18.203476   17.777440 H          1 MOL1         0.0794
      41    O10     15.572301   16.451660   18.323274 O.3        1 MOL1        -0.5486
      42    H20     15.817641   15.684857   18.891408 H          1 MOL1         0.3769
      43    C13     18.511959   24.066813   21.978246 C.3        1 MOL1         0.2972
      44    H21     18.926524   25.055472   22.214460 H          1 MOL1         0.0751
      45    O11     19.553874   23.109202   21.706139 O.3        1 MOL1        -0.3740
      46    C14     17.681805   23.548574   23.177342 C.3        1 MOL1         0.1003
      47    H22     16.849822   24.246129   23.338088 H          1 MOL1         0.0783
      48    O12     18.504883   23.510593   24.352275 O.3        1 MOL1        -0.5519
      49    H23     19.403964   23.239223   24.057420 H          1 MOL1         0.3769
      50    C15     17.085961   22.154989   22.864979 C.3        1 MOL1         0.1053
      51    H24     17.917714   21.442881   22.795893 H          1 MOL1         0.0783
      52    O13     16.177970   21.750041   23.898242 O.3        1 MOL1        -0.5519
      53    H25     16.733598   21.469772   24.674532 H          1 MOL1         0.3769
      54    C16     16.338568   22.145197   21.508568 C.3        1 MOL1         0.1018
      55    H26     15.354220   22.612762   21.644697 H          1 MOL1         0.0783
      56    C17     17.123023   22.857320   20.370395 C.3        1 MOL1         0.1043
      57    H27     17.956004   22.200166   20.092167 H          1 MOL1         0.0783
      58    O14     17.652685   24.130509   20.821843 O.3        1 MOL1        -0.3740
      59    C18     16.287118   23.101426   19.091206 C.3        1 MOL1         0.0138
      60    H28     16.110335   22.135097   18.599837 H          1 MOL1         0.0794
      61    H29     16.877554   23.715216   18.397670 H          1 MOL1         0.0794
      62    O15     15.035842   23.737824   19.377875 O.3        1 MOL1        -0.5486
      63    H30     14.599908   23.938549   18.521058 H          1 MOL1         0.3769
      64    C19     23.519259   22.739609   20.584259 C.3        1 MOL1         0.2972
      65    H31     24.541788   22.860724   20.204387 H          1 MOL1         0.0751
      66    O16     23.228812   21.355058   20.879234 O.3        1 MOL1        -0.3740
      67    C20     23.275160   23.624945   21.837296 C.3        1 MOL1         0.1003
      68    H32     23.374995   24.669188   21.513563 H          1 MOL1         0.0783
      69    O17     24.230780   23.378177   22.878629 O.3        1 MOL1        -0.5519
      70    H33     24.056920   22.461097   23.209202 H          1 MOL1         0.3769
      71    C21     21.831290   23.429043   22.358202 C.3        1 MOL1         0.1053
      72    H34     21.728477   22.394853   22.715199 H          1 MOL1         0.0783
      73    O18     21.582038   24.340953   23.432795 O.3        1 MOL1        -0.5519
      74    H35     22.370424   24.277233   24.015675 H          1 MOL1         0.3769
      75    C22     20.796617   23.654652   21.227400 C.3        1 MOL1         0.1018
      76    H36     20.727778   24.733258   21.034917 H          1 MOL1         0.0783
      77    C23     21.173167   22.921431   19.905454 C.3        1 MOL1         0.1043
      78    H37     21.034527   21.845375   20.056615 H          1 MOL1         0.0783
      79    O19     22.565929   23.176935   19.589482 O.3        1 MOL1        -0.3740
      80    C24     20.310353   23.304252   18.673651 C.3        1 MOL1         0.0138
      81    H38     19.479709   22.592525   18.595449 H          1 MOL1         0.0794
      82    H39     20.918227   23.173326   17.768451 H          1 MOL1         0.0794
      83    O20     19.795240   24.640402   18.727153 O.3        1 MOL1        -0.5486
      84    H40     19.079638   24.649220   19.405322 H          1 MOL1         0.3769
      85    C25     24.870560   17.691947   21.928652 C.3        1 MOL1         0.2972
      86    H41     25.524790   16.868901   22.243245 H          1 MOL1         0.0751
      87    O21     23.623168   17.203345   21.396058 O.3        1 MOL1        -0.3740
      88    C26     24.586198   18.643714   23.120713 C.3        1 MOL1         0.1003
      89    H42     25.554444   19.044377   23.448041 H          1 MOL1         0.0783
      90    O22     23.967297   17.962102   24.223132 O.3        1 MOL1        -0.5519
      91    H43     24.091012   16.994348   24.073557 H          1 MOL1         0.3769
      92    C27     23.702613   19.831331   22.680115 C.3        1 MOL1         0.1053
      93    H44     22.713527   19.436182   22.415894 H          1 MOL1         0.0783
      94    O23     23.584278   20.740478   23.778333 O.3        1 MOL1        -0.5519
      95    H45     23.328784   20.171126   24.539489 H          1 MOL1         0.3769
      96    C28     24.286992   20.547602   21.435075 C.3        1 MOL1         0.1018
      97    H46     25.149557   21.152103   21.744276 H          1 MOL1         0.0783
      98    C29     24.718481   19.544205   20.328377 C.3        1 MOL1         0.1043
      99    H47     23.809222   19.120450   19.882025 H          1 MOL1         0.0783
     100    O24     25.512871   18.471292   20.897291 O.3        1 MOL1        -0.3740
     101    C30     25.527239   20.200599   19.183916 C.3        1 MOL1         0.0138
     102    H48     24.847407   20.832693   18.596695 H          1 MOL1         0.0794
     103    H49     25.894997   19.409504   18.516807 H          1 MOL1         0.0794
     104    O25     26.620055   20.988038   19.674036 O.3        1 MOL1        -0.5486
     105    H50     27.129939   21.306167   18.897249 H          1 MOL1         0.3769
     106    C31     21.356187   13.729628   21.394452 C.3        1 MOL1         0.2972
     107    H51     20.971060   12.707012   21.294455 H          1 MOL1         0.0751
     108    O26     20.316839   14.662213   21.743510 O.3        1 MOL1        -0.3740
     109    C32     22.414498   13.783901   22.518947 C.3        1 MOL1         0.1003
     110    H52     23.227641   13.100846   22.240562 H          1 MOL1         0.0783
     111    O27     21.838816   13.357796   23.764596 O.3        1 MOL1        -0.5519
     112    H53     20.912710   13.705793   23.785174 H          1 MOL1         0.3769
     113    C33     23.008526   15.206098   22.660039 C.3        1 MOL1         0.1053
     114    H54     22.223895   15.865946   23.055717 H          1 MOL1         0.0783
     115    O28     24.102865   15.141276   23.581138 O.3        1 MOL1        -0.5519
     116    H55     23.787953   14.551479   24.303948 H          1 MOL1         0.3769
     117    C34     23.474308   15.772838   21.288867 C.3        1 MOL1         0.1018
     118    H56     24.419377   15.293166   21.004482 H          1 MOL1         0.0783
     119    C35     22.428323   15.541798   20.162527 C.3        1 MOL1         0.1043
     120    H57     21.570972   16.199297   20.354149 H          1 MOL1         0.0783
     121    O29     21.977449   14.164633   20.168012 O.3        1 MOL1        -0.3740
     122    C36     22.952400   15.890205   18.747218 C.3        1 MOL1         0.0138
     123    H58     23.035245   16.982149   18.664237 H          1 MOL1         0.0794
     124    H59     22.207206   15.565501   18.009284 H          1 MOL1         0.0794
     125    O30     24.220306   15.287541   18.461516 O.3        1 MOL1        -0.5486
     126    H60     24.900355   15.775815   18.973239 H          1 MOL1         0.3769
     127    C1      18.735640   19.851517   25.506697 C.2        1 MOL1         0.6173
     128    O1      17.661442   20.320151   25.832236 O.co2      1 MOL1        -0.6755
     129    O2      19.716108   19.865514   26.226727 O.co2      1 MOL1        -0.6755
     130    C2      18.831936   19.266274   24.142577 C.2        1 MOL1        -0.1504
     131    H1      17.914825   19.268817   23.561237 H          1 MOL1         0.0814
     132    C3      19.970711   18.777012   23.604831 C.2        1 MOL1        -0.1394
     133    H2      20.902272   18.775911   24.170554 H          1 MOL1         0.0817
     134    C4      20.056782   18.238021   22.195074 C.3        1 MOL1        -0.1849
     135    H3      19.246314   17.522399   22.015963 H          1 MOL1         0.0736
     136    H4      20.998558   17.690209   22.075841 H          1 MOL1         0.0736
     137    C5      19.982628   19.378380   21.160360 C.3        1 MOL1        -0.1866
     138    H5      18.992740   19.851516   21.201746 H          1 MOL1         0.0738
     139    H6      20.711154   20.152940   21.430008 H          1 MOL1         0.0738
     140    C6      20.265557   18.880967   19.729320 C.3        1 MOL1        -0.2879
     141    H7      21.293786   18.507932   19.647873 H          1 MOL1         0.0750
     142    H8      19.580528   18.072009   19.450193 H          1 MOL1         0.0750
     143    H9      20.144671   19.696871   19.005741 H          1 MOL1         0.0750
@<TRIPOS>BOND
    1     1     2    1
    2     1     3    1
    3     1     4    1
    4     4     5    1
    5     4     6    1
    6     6     7    1
    7     4     8    1
    8     8     9    1
    9     8    10    1
   10    10    11    1
   11     8    12    1
   12    12    13    1
   13    12    14    1
   14    14    15    1
   15     1    16    1
   16    14    16    1
   17    14    17    1
   18    17    18    1
   19    17    19    1
   20    17    20    1
   21    20    21    1
   22    22    23    1
   23    22    24    1
   24    22    25    1
   25    25    26    1
   26    25    27    1
   27    27    28    1
   28    25    29    1
   29    29    30    1
   30    29    31    1
   31    31    32    1
   32     3    33    1
   33    29    33    1
   34    33    34    1
   35    33    35    1
   36    35    36    1
   37    22    37    1
   38    35    37    1
   39    35    38    1
   40    38    39    1
   41    38    40    1
   42    38    41    1
   43    41    42    1
   44    43    44    1
   45    43    45    1
   46    43    46    1
   47    46    47    1
   48    46    48    1
   49    48    49    1
   50    46    50    1
   51    50    51    1
   52    50    52    1
   53    52    53    1
   54    24    54    1
   55    50    54    1
   56    54    55    1
   57    54    56    1
   58    56    57    1
   59    43    58    1
   60    56    58    1
   61    56    59    1
   62    59    60    1
   63    59    61    1
   64    59    62    1
   65    62    63    1
   66    64    65    1
   67    64    66    1
   68    64    67    1
   69    67    68    1
   70    67    69    1
   71    69    70    1
   72    67    71    1
   73    71    72    1
   74    71    73    1
   75    73    74    1
   76    45    75    1
   77    71    75    1
   78    75    76    1
   79    75    77    1
   80    77    78    1
   81    64    79    1
   82    77    79    1
   83    77    80    1
   84    80    81    1
   85    80    82    1
   86    80    83    1
   87    83    84    1
   88    85    86    1
   89    85    87    1
   90    85    88    1
   91    88    89    1
   92    88    90    1
   93    90    91    1
   94    88    92    1
   95    92    93    1
   96    92    94    1
   97    94    95    1
   98    66    96    1
   99    92    96    1
  100    96    97    1
  101    96    98    1
  102    98    99    1
  103    85   100    1
  104    98   100    1
  105    98   101    1
  106   101   102    1
  107   101   103    1
  108   101   104    1
  109   104   105    1
  110   106   107    1
  111    12   108    1
  112   106   108    1
  113   106   109    1
  114   109   110    1
  115   109   111    1
  116   111   112    1
  117   109   113    1
  118   113   114    1
  119   113   115    1
  120   115   116    1
  121    87   117    1
  122   113   117    1
  123   117   118    1
  124   117   119    1
  125   119   120    1
  126   106   121    1
  127   119   121    1
  128   119   122    1
  129   122   123    1
  130   122   124    1
  131   122   125    1
  132   125   126    1
  133   127   128    1
  134   127   129    2
  135   127   130    1
  136   130   131    1
  137   130   132    2
  138   132   133    1
  139   132   134    1
  140   134   135    1
  141   134   136    1
  142   134   137    1
  143   137   138    1
  144   137   139    1
  145   137   140    1
  146   140   141    1
  147   140   142    1
  148   140   143    1
@<TRIPOS>SUBSTRUCTURE
       1 MOL1            1 RESIDUE      1      MOL     
       2 MOL1          143 RESIDUE      1      MOL     
@<SCITEGIC>MOL_PROPERTY
feprocess Rank
SciTegic.value.IntegerValue
20

@<SCITEGIC>MOL_PROPERTY
Conf_Id
SciTegic.value.IntegerValue
817

@<SCITEGIC>MOL_PROPERTY
Probability
SciTegic.value.DoubleValue
0.24

@<SCITEGIC>MOL_PROPERTY
G
SciTegic.value.DoubleValue
498.218

@<SCITEGIC>MOL_PROPERTY
E
SciTegic.value.DoubleValue
317.734

@<SCITEGIC>MOL_PROPERTY
-TS
SciTegic.value.DoubleValue
180.484

@<SCITEGIC>MOL_PROPERTY
U+W
SciTegic.value.DoubleValue
191.645

@<SCITEGIC>MOL_PROPERTY
U
SciTegic.value.DoubleValue
277.599

@<SCITEGIC>MOL_PROPERTY
W
SciTegic.value.DoubleValue
-85.954

@<SCITEGIC>MOL_PROPERTY
W(PB)
SciTegic.value.DoubleValue
-92.009

@<SCITEGIC>MOL_PROPERTY
W(SA)
SciTegic.value.DoubleValue
6.056

@<SCITEGIC>MOL_PROPERTY
Valence
SciTegic.value.DoubleValue
148.723

@<SCITEGIC>MOL_PROPERTY
Coulomb
SciTegic.value.DoubleValue
153.936

@<SCITEGIC>MOL_PROPERTY
VdW
SciTegic.value.DoubleValue
-25.059

@<SCITEGIC>MOL_PROPERTY
VdW6
SciTegic.value.DoubleValue
-177.758

@<SCITEGIC>MOL_PROPERTY
VdW12
SciTegic.value.DoubleValue
152.698

@<SCITEGIC>MOL_PROPERTY
Bond
SciTegic.value.DoubleValue
4.652

@<SCITEGIC>MOL_PROPERTY
Angle
SciTegic.value.DoubleValue
13.954

@<SCITEGIC>MOL_PROPERTY
Pdih
SciTegic.value.DoubleValue
130.112

@<SCITEGIC>MOL_PROPERTY
Idih
SciTegic.value.DoubleValue
0.004

@<SCITEGIC>MOL_PROPERTY
Tether
SciTegic.value.DoubleValue
0.000

@<TRIPOS>MOLECULE
CD_guest-s19_fast_vm2_rndm.mol2 : feprocess host+ligand conformer 21
         143         148           2
SMALL
USER_CHARGES
 
@<TRIPOS>ATOM
       1    C1      16.026996   14.902789   21.596415 C.3        1 MOL1         0.2972
       2    H1      14.948237   14.704344   21.627526 H          1 MOL1         0.0751
       3    O1      16.315942   16.293287   21.864040 O.3        1 MOL1        -0.3740
       4    C2      16.748767   14.018687   22.643137 C.3        1 MOL1         0.1003
       5    H2      16.641190   12.977452   22.312827 H          1 MOL1         0.0783
       6    O2      16.138855   14.142921   23.937480 O.3        1 MOL1        -0.5519
       7    H3      16.683698   14.770410   24.477973 H          1 MOL1         0.3769
       8    C3      18.259080   14.358865   22.645485 C.3        1 MOL1         0.1053
       9    H4      18.372517   15.420736   22.888883 H          1 MOL1         0.0783
      10    O3      18.964133   13.573092   23.613312 O.3        1 MOL1        -0.5519
      11    H5      18.720718   13.975380   24.487108 H          1 MOL1         0.3769
      12    C4      18.850737   14.144274   21.232662 C.3        1 MOL1         0.1018
      13    H6      18.924630   13.064677   21.047243 H          1 MOL1         0.0783
      14    C5      17.994546   14.827816   20.126651 C.3        1 MOL1         0.1043
      15    H7      18.160382   15.909439   20.209486 H          1 MOL1         0.0783
      16    O4      16.577006   14.555983   20.306559 O.3        1 MOL1        -0.3740
      17    C6      18.391527   14.403736   18.692269 C.3        1 MOL1         0.0138
      18    H8      19.372973   14.837181   18.458265 H          1 MOL1         0.0794
      19    H9      17.668972   14.832663   17.985279 H          1 MOL1         0.0794
      20    O5      18.441923   12.978944   18.547339 O.3        1 MOL1        -0.5486
      21    H10     18.647340   12.782166   17.607545 H          1 MOL1         0.3769
      22    C7      14.786034   20.144760   21.349485 C.3        1 MOL1         0.2972
      23    H11     14.126415   20.996101   21.138343 H          1 MOL1         0.0751
      24    O6      16.129483   20.581080   21.645471 O.3        1 MOL1        -0.3740
      25    C8      14.240917   19.371725   22.572904 C.3        1 MOL1         0.1003
      26    H12     13.212583   19.066824   22.340365 H          1 MOL1         0.0783
      27    O7      14.228274   20.245310   23.714593 O.3        1 MOL1        -0.5519
      28    H13     14.983653   20.871988   23.602697 H          1 MOL1         0.3769
      29    C9      15.062694   18.085511   22.846531 C.3        1 MOL1         0.1053
      30    H14     16.047648   18.390132   23.221254 H          1 MOL1         0.0783
      31    O8      14.389906   17.282376   23.824559 O.3        1 MOL1        -0.5519
      32    H15     15.056108   17.088118   24.535518 H          1 MOL1         0.3769
      33    C10     15.274864   17.245587   21.557488 C.3        1 MOL1         0.1018
      34    H16     14.326331   16.751072   21.310764 H          1 MOL1         0.0783
      35    C11     15.733060   18.123502   20.356444 C.3        1 MOL1         0.1043
      36    H17     16.746330   18.485556   20.572713 H          1 MOL1         0.0783
      37    O9      14.835298   19.252047   20.219653 O.3        1 MOL1        -0.3740
      38    C12     15.786925   17.410434   18.980367 C.3        1 MOL1         0.0138
      39    H18     16.782710   16.973187   18.848403 H          1 MOL1         0.0794
      40    H19     15.672766   18.166125   18.191631 H          1 MOL1         0.0794
      41    O10     14.789088   16.395999   18.827335 O.3        1 MOL1        -0.5486
      42    H20     15.145779   15.585129   19.258917 H          1 MOL1         0.3769
      43    C13     18.568297   23.934707   20.848743 C.3        1 MOL1         0.2972
      44    H21     18.883082   24.917607   20.475034 H          1 MOL1         0.0751
      45    O11     19.670525   23.208992   21.423467 O.3        1 MOL1        -0.3740
      46    C14     17.498294   24.097888   21.960693 C.3        1 MOL1         0.1003
      47    H22     16.675165   24.690245   21.540519 H          1 MOL1         0.0783
      48    O12     18.052697   24.790428   23.091882 O.3        1 MOL1        -0.5519
      49    H23     18.967656   24.437652   23.225386 H          1 MOL1         0.3769
      50    C15     16.923538   22.726181   22.399684 C.3        1 MOL1         0.1053
      51    H24     17.717581   22.166630   22.913687 H          1 MOL1         0.0783
      52    O13     15.819484   22.933766   23.287140 O.3        1 MOL1        -0.5519
      53    H25     16.133686   23.602320   23.935590 H          1 MOL1         0.3769
      54    C16     16.467929   21.901045   21.172178 C.3        1 MOL1         0.1018
      55    H26     15.607492   22.406540   20.714105 H          1 MOL1         0.0783
      56    C17     17.608951   21.801533   20.126404 C.3        1 MOL1         0.1043
      57    H27     18.451410   21.273910   20.587014 H          1 MOL1         0.0783
      58    O14     18.012763   23.145173   19.774792 O.3        1 MOL1        -0.3740
      59    C18     17.253505   21.050355   18.819245 C.3        1 MOL1         0.0138
      60    H28     17.404066   19.976499   18.982007 H          1 MOL1         0.0794
      61    H29     17.964958   21.354542   18.040100 H          1 MOL1         0.0794
      62    O15     15.912437   21.290597   18.378733 O.3        1 MOL1        -0.5486
      63    H30     15.330545   20.691845   18.901867 H          1 MOL1         0.3769
      64    C19     23.785537   22.963723   21.312363 C.3        1 MOL1         0.2972
      65    H31     24.870305   23.100182   21.215158 H          1 MOL1         0.0751
      66    O16     23.431439   21.575368   21.475609 O.3        1 MOL1        -0.3740
      67    C20     23.219577   23.771420   22.508358 C.3        1 MOL1         0.1003
      68    H32     23.372242   24.835183   22.283911 H          1 MOL1         0.0783
      69    O17     23.896204   23.456656   23.733961 O.3        1 MOL1        -0.5519
      70    H33     23.848303   22.474311   23.853749 H          1 MOL1         0.3769
      71    C21     21.696486   23.527849   22.637641 C.3        1 MOL1         0.1053
      72    H34     21.535685   22.471698   22.895539 H          1 MOL1         0.0783
      73    O18     21.158544   24.364036   23.668702 O.3        1 MOL1        -0.5519
      74    H35     21.783595   24.275323   24.422160 H          1 MOL1         0.3769
      75    C22     20.968999   23.822100   21.301812 C.3        1 MOL1         0.1018
      76    H36     20.895199   24.912458   21.196537 H          1 MOL1         0.0783
      77    C23     21.689893   23.216937   20.058150 C.3        1 MOL1         0.1043
      78    H37     21.510326   22.134862   20.048144 H          1 MOL1         0.0783
      79    O19     23.118809   23.455172   20.131797 O.3        1 MOL1        -0.3740
      80    C24     21.188586   23.776984   18.704724 C.3        1 MOL1         0.0138
      81    H38     20.197797   23.355684   18.493594 H          1 MOL1         0.0794
      82    H39     21.861994   23.425400   17.911636 H          1 MOL1         0.0794
      83    O20     21.121992   25.208934   18.700176 O.3        1 MOL1        -0.5486
      84    H40     20.852605   25.490912   17.798882 H          1 MOL1         0.3769
      85    C25     24.858964   17.743275   21.976287 C.3        1 MOL1         0.2972
      86    H41     25.444570   16.829661   22.141093 H          1 MOL1         0.0751
      87    O21     23.523461   17.445785   21.528361 O.3        1 MOL1        -0.3740
      88    C26     24.760012   18.557594   23.287960 C.3        1 MOL1         0.1003
      89    H42     25.781105   18.840910   23.574682 H          1 MOL1         0.0783
      90    O22     24.173894   17.774266   24.340748 O.3        1 MOL1        -0.5519
      91    H43     23.987079   16.879771   23.964260 H          1 MOL1         0.3769
      92    C27     23.945703   19.852515   23.064385 C.3        1 MOL1         0.1053
      93    H44     22.909409   19.573043   22.843045 H          1 MOL1         0.0783
      94    O23     23.984435   20.632861   24.261708 O.3        1 MOL1        -0.5519
      95    H45     23.797766   19.986630   24.980010 H          1 MOL1         0.3769
      96    C28     24.482476   20.667719   21.860753 C.3        1 MOL1         0.1018
      97    H46     25.394261   21.194956   22.171036 H          1 MOL1         0.0783
      98    C29     24.770495   19.781529   20.613995 C.3        1 MOL1         0.1043
      99    H47     23.805781   19.496606   20.175981 H          1 MOL1         0.0783
     100    O24     25.490840   18.576859   20.982106 O.3        1 MOL1        -0.3740
     101    C30     25.570355   20.517408   19.512793 C.3        1 MOL1         0.0138
     102    H48     24.922175   21.283572   19.065887 H          1 MOL1         0.0794
     103    H49     25.820559   19.798810   18.720835 H          1 MOL1         0.0794
     104    O25     26.760512   21.128548   20.026932 O.3        1 MOL1        -0.5486
     105    H50     27.246582   21.518548   19.267840 H          1 MOL1         0.3769
     106    C31     21.230603   14.051023   20.644578 C.3        1 MOL1         0.2972
     107    H51     20.901827   13.081430   20.249072 H          1 MOL1         0.0751
     108    O26     20.139646   14.788326   21.229632 O.3        1 MOL1        -0.3740
     109    C32     22.302913   13.859154   21.749456 C.3        1 MOL1         0.1003
     110    H52     23.149402   13.327872   21.295344 H          1 MOL1         0.0783
     111    O27     21.789414   13.076546   22.839096 O.3        1 MOL1        -0.5519
     112    H53     20.876381   13.407669   23.037455 H          1 MOL1         0.3769
     113    C33     22.819301   15.228317   22.260555 C.3        1 MOL1         0.1053
     114    H54     21.989524   15.744645   22.761808 H          1 MOL1         0.0783
     115    O28     23.888239   15.012189   23.187727 O.3        1 MOL1        -0.5519
     116    H55     23.587798   14.260102   23.746880 H          1 MOL1         0.3769
     117    C34     23.291491   16.102943   21.069911 C.3        1 MOL1         0.1018
     118    H56     24.201109   15.663271   20.640211 H          1 MOL1         0.0783
     119    C35     22.204126   16.191020   19.967971 C.3        1 MOL1         0.1043
     120    H57     21.336133   16.719300   20.380049 H          1 MOL1         0.0783
     121    O29     21.810065   14.851014   19.587986 O.3        1 MOL1        -0.3740
     122    C36     22.649679   16.969979   18.703394 C.3        1 MOL1         0.0138
     123    H58     22.479631   18.039915   18.879836 H          1 MOL1         0.0794
     124    H59     22.004367   16.677794   17.864428 H          1 MOL1         0.0794
     125    O30     24.026836   16.756560   18.368235 O.3        1 MOL1        -0.5486
     126    H60     24.565235   17.171040   19.078950 H          1 MOL1         0.3769
     127    C1      17.593176   16.639652   25.394956 C.2        1 MOL1         0.6173
     128    O1      16.463583   16.943906   25.722258 O.co2      1 MOL1        -0.6755
     129    O2      18.033115   15.511055   25.525587 O.co2      1 MOL1        -0.6755
     130    C2      18.382864   17.651981   24.646395 C.2        1 MOL1        -0.1504
     131    H1      17.913335   18.623517   24.515146 H          1 MOL1         0.0814
     132    C3      19.594754   17.402587   24.104009 C.2        1 MOL1        -0.1394
     133    H2      20.070127   16.429337   24.221755 H          1 MOL1         0.0817
     134    C4      20.354658   18.397973   23.261348 C.3        1 MOL1        -0.1849
     135    H3      21.370743   18.019774   23.102623 H          1 MOL1         0.0736
     136    H4      20.450153   19.353895   23.793393 H          1 MOL1         0.0736
     137    C5      19.668152   18.619305   21.897013 C.3        1 MOL1        -0.1866
     138    H5      19.508972   17.650870   21.405454 H          1 MOL1         0.0738
     139    H6      18.675177   19.062976   22.051171 H          1 MOL1         0.0738
     140    C6      20.508890   19.535539   20.987477 C.3        1 MOL1        -0.2879
     141    H7      20.617864   20.527688   21.442374 H          1 MOL1         0.0750
     142    H8      21.512879   19.124794   20.835919 H          1 MOL1         0.0750
     143    H9      20.037996   19.652680   20.003997 H          1 MOL1         0.0750
@<TRIPOS>BOND
    1     1     2    1
    2     1     3    1
    3     1     4    1
    4     4     5    1
    5     4     6    1
    6     6     7    1
    7     4     8    1
    8     8     9    1
    9     8    10    1
   10    10    11    1
   11     8    12    1
   12    12    13    1
   13    12    14    1
   14    14    15    1
   15     1    16    1
   16    14    16    1
   17    14    17    1
   18    17    18    1
   19    17    19    1
   20    17    20    1
   21    20    21    1
   22    22    23    1
   23    22    24    1
   24    22    25    1
   25    25    26    1
   26    25    27    1
   27    27    28    1
   28    25    29    1
   29    29    30    1
   30    29    31    1
   31    31    32    1
   32     3    33    1
   33    29    33    1
   34    33    34    1
   35    33    35    1
   36    35    36    1
   37    22    37    1
   38    35    37    1
   39    35    38    1
   40    38    39    1
   41    38    40    1
   42    38    41    1
   43    41    42    1
   44    43    44    1
   45    43    45    1
   46    43    46    1
   47    46    47    1
   48    46    48    1
   49    48    49    1
   50    46    50    1
   51    50    51    1
   52    50    52    1
   53    52    53    1
   54    24    54    1
   55    50    54    1
   56    54    55    1
   57    54    56    1
   58    56    57    1
   59    43    58    1
   60    56    58    1
   61    56    59    1
   62    59    60    1
   63    59    61    1
   64    59    62    1
   65    62    63    1
   66    64    65    1
   67    64    66    1
   68    64    67    1
   69    67    68    1
   70    67    69    1
   71    69    70    1
   72    67    71    1
   73    71    72    1
   74    71    73    1
   75    73    74    1
   76    45    75    1
   77    71    75    1
   78    75    76    1
   79    75    77    1
   80    77    78    1
   81    64    79    1
   82    77    79    1
   83    77    80    1
   84    80    81    1
   85    80    82    1
   86    80    83    1
   87    83    84    1
   88    85    86    1
   89    85    87    1
   90    85    88    1
   91    88    89    1
   92    88    90    1
   93    90    91    1
   94    88    92    1
   95    92    93    1
   96    92    94    1
   97    94    95    1
   98    66    96    1
   99    92    96    1
  100    96    97    1
  101    96    98    1
  102    98    99    1
  103    85   100    1
  104    98   100    1
  105    98   101    1
  106   101   102    1
  107   101   103    1
  108   101   104    1
  109   104   105    1
  110   106   107    1
  111    12   108    1
  112   106   108    1
  113   106   109    1
  114   109   110    1
  115   109   111    1
  116   111   112    1
  117   109   113    1
  118   113   114    1
  119   113   115    1
  120   115   116    1
  121    87   117    1
  122   113   117    1
  123   117   118    1
  124   117   119    1
  125   119   120    1
  126   106   121    1
  127   119   121    1
  128   119   122    1
  129   122   123    1
  130   122   124    1
  131   122   125    1
  132   125   126    1
  133   127   128    1
  134   127   129    2
  135   127   130    1
  136   130   131    1
  137   130   132    2
  138   132   133    1
  139   132   134    1
  140   134   135    1
  141   134   136    1
  142   134   137    1
  143   137   138    1
  144   137   139    1
  145   137   140    1
  146   140   141    1
  147   140   142    1
  148   140   143    1
@<TRIPOS>SUBSTRUCTURE
       1 MOL1            1 RESIDUE      1      MOL     
       2 MOL1          143 RESIDUE      1      MOL     
@<SCITEGIC>MOL_PROPERTY
feprocess Rank
SciTegic.value.IntegerValue
21

@<SCITEGIC>MOL_PROPERTY
Conf_Id
SciTegic.value.IntegerValue
681

@<SCITEGIC>MOL_PROPERTY
Probability
SciTegic.value.DoubleValue
0.22

@<SCITEGIC>MOL_PROPERTY
G
SciTegic.value.DoubleValue
498.252

@<SCITEGIC>MOL_PROPERTY
E
SciTegic.value.DoubleValue
315.125

@<SCITEGIC>MOL_PROPERTY
-TS
SciTegic.value.DoubleValue
183.128

@<SCITEGIC>MOL_PROPERTY
U+W
SciTegic.value.DoubleValue
189.036

@<SCITEGIC>MOL_PROPERTY
U
SciTegic.value.DoubleValue
267.988

@<SCITEGIC>MOL_PROPERTY
W
SciTegic.value.DoubleValue
-78.951

@<SCITEGIC>MOL_PROPERTY
W(PB)
SciTegic.value.DoubleValue
-85.001

@<SCITEGIC>MOL_PROPERTY
W(SA)
SciTegic.value.DoubleValue
6.049

@<SCITEGIC>MOL_PROPERTY
Valence
SciTegic.value.DoubleValue
151.835

@<SCITEGIC>MOL_PROPERTY
Coulomb
SciTegic.value.DoubleValue
139.965

@<SCITEGIC>MOL_PROPERTY
VdW
SciTegic.value.DoubleValue
-23.813

@<SCITEGIC>MOL_PROPERTY
VdW6
SciTegic.value.DoubleValue
-180.790

@<SCITEGIC>MOL_PROPERTY
VdW12
SciTegic.value.DoubleValue
156.978

@<SCITEGIC>MOL_PROPERTY
Bond
SciTegic.value.DoubleValue
4.909

@<SCITEGIC>MOL_PROPERTY
Angle
SciTegic.value.DoubleValue
13.932

@<SCITEGIC>MOL_PROPERTY
Pdih
SciTegic.value.DoubleValue
132.940

@<SCITEGIC>MOL_PROPERTY
Idih
SciTegic.value.DoubleValue
0.055

@<SCITEGIC>MOL_PROPERTY
Tether
SciTegic.value.DoubleValue
0.000

@<TRIPOS>MOLECULE
CD_guest-s19_fast_vm2_rndm.mol2 : feprocess host+ligand conformer 22
         143         148           2
SMALL
USER_CHARGES
 
@<TRIPOS>ATOM
       1    C1      16.129596   15.103986   20.577139 C.3        1 MOL1         0.2972
       2    H1      15.054682   15.011818   20.375243 H          1 MOL1         0.0751
       3    O1      16.497063   16.468642   20.875723 O.3        1 MOL1        -0.3740
       4    C2      16.570044   14.168291   21.733595 C.3        1 MOL1         0.1003
       5    H2      16.424691   13.137240   21.385526 H          1 MOL1         0.0783
       6    O2      15.788952   14.362930   22.920976 O.3        1 MOL1        -0.5519
       7    H3      15.982330   15.279075   23.242761 H          1 MOL1         0.3769
       8    C3      18.077716   14.362823   22.021762 C.3        1 MOL1         0.1053
       9    H4      18.230969   15.386925   22.390219 H          1 MOL1         0.0783
      10    O3      18.501544   13.423198   23.014834 O.3        1 MOL1        -0.5519
      11    H5      17.804202   13.449330   23.707458 H          1 MOL1         0.3769
      12    C4      18.920591   14.176162   20.734536 C.3        1 MOL1         0.1018
      13    H6      19.004554   13.099872   20.537420 H          1 MOL1         0.0783
      14    C5      18.319305   14.898557   19.492016 C.3        1 MOL1         0.1043
      15    H7      18.512297   15.972610   19.595253 H          1 MOL1         0.0783
      16    O4      16.885547   14.690577   19.419511 O.3        1 MOL1        -0.3740
      17    C6      18.946179   14.456855   18.147055 C.3        1 MOL1         0.0138
      18    H8      19.992122   14.790343   18.116005 H          1 MOL1         0.0794
      19    H9      18.419091   14.976622   17.336005 H          1 MOL1         0.0794
      20    O5      18.876283   13.039319   17.943766 O.3        1 MOL1        -0.5486
      21    H10     19.579710   12.618810   18.479757 H          1 MOL1         0.3769
      22    C7      15.124414   20.137764   22.181659 C.3        1 MOL1         0.2972
      23    H11     14.562487   20.994372   22.575821 H          1 MOL1         0.0751
      24    O6      16.362580   20.546414   21.570487 O.3        1 MOL1        -0.3740
      25    C8      15.446200   19.139649   23.319156 C.3        1 MOL1         0.1003
      26    H12     14.489717   18.766140   23.707429 H          1 MOL1         0.0783
      27    O7      16.168847   19.775843   24.385069 O.3        1 MOL1        -0.5519
      28    H13     16.385485   20.690970   24.081268 H          1 MOL1         0.3769
      29    C9      16.243557   17.935070   22.771967 C.3        1 MOL1         0.1053
      30    H14     17.221588   18.298975   22.434747 H          1 MOL1         0.0783
      31    O8      16.422214   16.990411   23.830610 O.3        1 MOL1        -0.5519
      32    H15     16.728997   17.533580   24.591900 H          1 MOL1         0.3769
      33    C10     15.523504   17.282735   21.561415 C.3        1 MOL1         0.1018
      34    H16     14.677391   16.689294   21.932165 H          1 MOL1         0.0783
      35    C11     15.020803   18.331925   20.526534 C.3        1 MOL1         0.1043
      36    H17     15.895321   18.719498   19.989331 H          1 MOL1         0.0783
      37    O9      14.349225   19.436132   21.187127 O.3        1 MOL1        -0.3740
      38    C12     14.063811   17.738737   19.465250 C.3        1 MOL1         0.0138
      39    H18     14.644086   17.082904   18.802045 H          1 MOL1         0.0794
      40    H19     13.670509   18.559161   18.850084 H          1 MOL1         0.0794
      41    O10     12.988546   17.000246   20.058934 O.3        1 MOL1        -0.5486
      42    H20     12.384354   16.721133   19.336704 H          1 MOL1         0.3769
      43    C13     18.509258   24.068957   20.913914 C.3        1 MOL1         0.2972
      44    H21     18.802915   25.096529   20.665712 H          1 MOL1         0.0751
      45    O11     19.649358   23.226011   21.153843 O.3        1 MOL1        -0.3740
      46    C14     17.651840   24.051620   22.204843 C.3        1 MOL1         0.1003
      47    H22     16.751965   24.649410   22.010152 H          1 MOL1         0.0783
      48    O12     18.371746   24.631616   23.303952 O.3        1 MOL1        -0.5519
      49    H23     19.320032   24.365136   23.202910 H          1 MOL1         0.3769
      50    C15     17.200987   22.610127   22.549146 C.3        1 MOL1         0.1053
      51    H24     18.090485   22.018282   22.810412 H          1 MOL1         0.0783
      52    O13     16.304047   22.658089   23.663070 O.3        1 MOL1        -0.5519
      53    H25     16.728710   23.277272   24.299259 H          1 MOL1         0.3769
      54    C16     16.514157   21.954202   21.322650 C.3        1 MOL1         0.1018
      55    H26     15.544121   22.439427   21.152864 H          1 MOL1         0.0783
      56    C17     17.376440   22.089337   20.039608 C.3        1 MOL1         0.1043
      57    H27     18.289539   21.500846   20.179714 H          1 MOL1         0.0783
      58    O14     17.732454   23.481553   19.844952 O.3        1 MOL1        -0.3740
      59    C18     16.694434   21.545950   18.758201 C.3        1 MOL1         0.0138
      60    H28     16.868431   20.462765   18.709742 H          1 MOL1         0.0794
      61    H29     17.187060   21.988535   17.882360 H          1 MOL1         0.0794
      62    O15     15.285621   21.805378   18.719427 O.3        1 MOL1        -0.5486
      63    H30     14.869606   21.248642   19.414702 H          1 MOL1         0.3769
      64    C19     23.715589   22.733307   20.760748 C.3        1 MOL1         0.2972
      65    H31     24.790069   22.789085   20.544200 H          1 MOL1         0.0751
      66    O16     23.331723   21.410535   21.188555 O.3        1 MOL1        -0.3740
      67    C20     23.296513   23.784820   21.824176 C.3        1 MOL1         0.1003
      68    H32     23.484094   24.773688   21.385896 H          1 MOL1         0.0783
      69    O17     24.060694   23.668569   23.033540 O.3        1 MOL1        -0.5519
      70    H33     23.823608   22.796758   23.438496 H          1 MOL1         0.3769
      71    C21     21.779922   23.679679   22.118277 C.3        1 MOL1         0.1053
      72    H34     21.586513   22.710443   22.598866 H          1 MOL1         0.0783
      73    O18     21.386122   24.741512   22.993778 O.3        1 MOL1        -0.5519
      74    H35     22.055394   24.744030   23.713309 H          1 MOL1         0.3769
      75    C22     20.946008   23.743029   20.813891 C.3        1 MOL1         0.1018
      76    H36     20.905765   24.785279   20.472918 H          1 MOL1         0.0783
      77    C23     21.517978   22.837597   19.687295 C.3        1 MOL1         0.1043
      78    H37     21.316702   21.794163   19.960983 H          1 MOL1         0.0783
      79    O19     22.951932   23.028813   19.570970 O.3        1 MOL1        -0.3740
      80    C24     20.869836   23.068696   18.300048 C.3        1 MOL1         0.0138
      81    H38     19.857196   22.644519   18.309629 H          1 MOL1         0.0794
      82    H39     21.446237   22.508205   17.552129 H          1 MOL1         0.0794
      83    O20     20.810819   24.453526   17.937661 O.3        1 MOL1        -0.5486
      84    H40     20.003640   24.830770   18.347556 H          1 MOL1         0.3769
      85    C25     24.476256   17.818062   22.795243 C.3        1 MOL1         0.2972
      86    H41     24.964023   16.963734   23.281650 H          1 MOL1         0.0751
      87    O21     23.258923   17.414778   22.131150 O.3        1 MOL1        -0.3740
      88    C26     24.164371   18.909152   23.850046 C.3        1 MOL1         0.1003
      89    H42     25.129099   19.272081   24.227079 H          1 MOL1         0.0783
      90    O22     23.424796   18.363401   24.956314 O.3        1 MOL1        -0.5519
      91    H43     22.469871   18.615749   24.864497 H          1 MOL1         0.3769
      92    C27     23.446018   20.103469   23.179391 C.3        1 MOL1         0.1053
      93    H44     22.492646   19.743916   22.775525 H          1 MOL1         0.0783
      94    O23     23.210544   21.150801   24.128963 O.3        1 MOL1        -0.5519
      95    H45     22.245145   21.087347   24.364779 H          1 MOL1         0.3769
      96    C28     24.263093   20.648741   21.981842 C.3        1 MOL1         0.1018
      97    H46     25.095081   21.259479   22.356096 H          1 MOL1         0.0783
      98    C29     24.791688   19.519471   21.052366 C.3        1 MOL1         0.1043
      99    H47     23.931460   19.157356   20.481422 H          1 MOL1         0.0783
     100    O24     25.348829   18.409415   21.806214 O.3        1 MOL1        -0.3740
     101    C30     25.847028   20.004673   20.030230 C.3        1 MOL1         0.0138
     102    H48     25.348158   20.649413   19.294061 H          1 MOL1         0.0794
     103    H49     26.239327   19.134327   19.487314 H          1 MOL1         0.0794
     104    O25     26.915384   20.721953   20.659955 O.3        1 MOL1        -0.5486
     105    H50     27.581771   20.931879   19.969664 H          1 MOL1         0.3769
     106    C31     21.370949   14.012539   20.673650 C.3        1 MOL1         0.2972
     107    H51     21.114411   13.052379   20.209601 H          1 MOL1         0.0751
     108    O26     20.198854   14.779544   21.008624 O.3        1 MOL1        -0.3740
     109    C32     22.181723   13.786765   21.971801 C.3        1 MOL1         0.1003
     110    H52     23.098399   13.251259   21.692222 H          1 MOL1         0.0783
     111    O27     21.440991   12.987533   22.908291 O.3        1 MOL1        -0.5519
     112    H53     20.509863   13.326073   22.918120 H          1 MOL1         0.3769
     113    C33     22.599553   15.133919   22.612709 C.3        1 MOL1         0.1053
     114    H54     21.698041   15.628893   23.000183 H          1 MOL1         0.0783
     115    O28     23.507033   14.857302   23.684098 O.3        1 MOL1        -0.5519
     116    H55     23.064720   14.166404   24.224509 H          1 MOL1         0.3769
     117    C34     23.265650   16.082124   21.577424 C.3        1 MOL1         0.1018
     118    H56     24.287587   15.726714   21.393113 H          1 MOL1         0.0783
     119    C35     22.494343   16.137832   20.225801 C.3        1 MOL1         0.1043
     120    H57     21.558947   16.687668   20.387317 H          1 MOL1         0.0783
     121    O29     22.188628   14.794396   19.781298 O.3        1 MOL1        -0.3740
     122    C36     23.250920   16.853506   19.076051 C.3        1 MOL1         0.0138
     123    H58     22.992828   17.917814   19.095704 H          1 MOL1         0.0794
     124    H59     22.878909   16.465191   18.118518 H          1 MOL1         0.0794
     125    O30     24.674426   16.695432   19.147872 O.3        1 MOL1        -0.5486
     126    H60     24.978665   17.124579   19.979444 H          1 MOL1         0.3769
     127    C1      20.282154   19.640316   24.145166 C.2        1 MOL1         0.6173
     128    O1      20.405781   20.850584   24.104283 O.co2      1 MOL1        -0.6755
     129    O2      20.643105   18.977191   25.096710 O.co2      1 MOL1        -0.6755
     130    C2      19.894148   18.897745   22.917402 C.2        1 MOL1        -0.1504
     131    H1      19.833662   17.816486   23.017572 H          1 MOL1         0.0814
     132    C3      19.662367   19.488623   21.724701 C.2        1 MOL1        -0.1394
     133    H2      19.744867   20.568274   21.617981 H          1 MOL1         0.0817
     134    C4      19.307142   18.717113   20.473909 C.3        1 MOL1        -0.1849
     135    H3      18.234329   18.810987   20.268324 H          1 MOL1         0.0736
     136    H4      19.500425   17.651055   20.640310 H          1 MOL1         0.0736
     137    C5      20.113782   19.204668   19.254988 C.3        1 MOL1        -0.1866
     138    H5      19.817946   20.230048   19.003631 H          1 MOL1         0.0738
     139    H6      21.180930   19.236222   19.510065 H          1 MOL1         0.0738
     140    C6      19.897077   18.297144   18.028540 C.3        1 MOL1        -0.2879
     141    H7      18.835183   18.257436   17.753093 H          1 MOL1         0.0750
     142    H8      20.459094   18.674217   17.164561 H          1 MOL1         0.0750
     143    H9      20.237024   17.274716   18.233062 H          1 MOL1         0.0750
@<TRIPOS>BOND
    1     1     2    1
    2     1     3    1
    3     1     4    1
    4     4     5    1
    5     4     6    1
    6     6     7    1
    7     4     8    1
    8     8     9    1
    9     8    10    1
   10    10    11    1
   11     8    12    1
   12    12    13    1
   13    12    14    1
   14    14    15    1
   15     1    16    1
   16    14    16    1
   17    14    17    1
   18    17    18    1
   19    17    19    1
   20    17    20    1
   21    20    21    1
   22    22    23    1
   23    22    24    1
   24    22    25    1
   25    25    26    1
   26    25    27    1
   27    27    28    1
   28    25    29    1
   29    29    30    1
   30    29    31    1
   31    31    32    1
   32     3    33    1
   33    29    33    1
   34    33    34    1
   35    33    35    1
   36    35    36    1
   37    22    37    1
   38    35    37    1
   39    35    38    1
   40    38    39    1
   41    38    40    1
   42    38    41    1
   43    41    42    1
   44    43    44    1
   45    43    45    1
   46    43    46    1
   47    46    47    1
   48    46    48    1
   49    48    49    1
   50    46    50    1
   51    50    51    1
   52    50    52    1
   53    52    53    1
   54    24    54    1
   55    50    54    1
   56    54    55    1
   57    54    56    1
   58    56    57    1
   59    43    58    1
   60    56    58    1
   61    56    59    1
   62    59    60    1
   63    59    61    1
   64    59    62    1
   65    62    63    1
   66    64    65    1
   67    64    66    1
   68    64    67    1
   69    67    68    1
   70    67    69    1
   71    69    70    1
   72    67    71    1
   73    71    72    1
   74    71    73    1
   75    73    74    1
   76    45    75    1
   77    71    75    1
   78    75    76    1
   79    75    77    1
   80    77    78    1
   81    64    79    1
   82    77    79    1
   83    77    80    1
   84    80    81    1
   85    80    82    1
   86    80    83    1
   87    83    84    1
   88    85    86    1
   89    85    87    1
   90    85    88    1
   91    88    89    1
   92    88    90    1
   93    90    91    1
   94    88    92    1
   95    92    93    1
   96    92    94    1
   97    94    95    1
   98    66    96    1
   99    92    96    1
  100    96    97    1
  101    96    98    1
  102    98    99    1
  103    85   100    1
  104    98   100    1
  105    98   101    1
  106   101   102    1
  107   101   103    1
  108   101   104    1
  109   104   105    1
  110   106   107    1
  111    12   108    1
  112   106   108    1
  113   106   109    1
  114   109   110    1
  115   109   111    1
  116   111   112    1
  117   109   113    1
  118   113   114    1
  119   113   115    1
  120   115   116    1
  121    87   117    1
  122   113   117    1
  123   117   118    1
  124   117   119    1
  125   119   120    1
  126   106   121    1
  127   119   121    1
  128   119   122    1
  129   122   123    1
  130   122   124    1
  131   122   125    1
  132   125   126    1
  133   127   128    1
  134   127   129    2
  135   127   130    1
  136   130   131    1
  137   130   132    2
  138   132   133    1
  139   132   134    1
  140   134   135    1
  141   134   136    1
  142   134   137    1
  143   137   138    1
  144   137   139    1
  145   137   140    1
  146   140   141    1
  147   140   142    1
  148   140   143    1
@<TRIPOS>SUBSTRUCTURE
       1 MOL1            1 RESIDUE      1      MOL     
       2 MOL1          143 RESIDUE      1      MOL     
@<SCITEGIC>MOL_PROPERTY
feprocess Rank
SciTegic.value.IntegerValue
22

@<SCITEGIC>MOL_PROPERTY
Conf_Id
SciTegic.value.IntegerValue
974

@<SCITEGIC>MOL_PROPERTY
Probability
SciTegic.value.DoubleValue
0.21

@<SCITEGIC>MOL_PROPERTY
G
SciTegic.value.DoubleValue
498.283

@<SCITEGIC>MOL_PROPERTY
E
SciTegic.value.DoubleValue
316.801

@<SCITEGIC>MOL_PROPERTY
-TS
SciTegic.value.DoubleValue
181.482

@<SCITEGIC>MOL_PROPERTY
U+W
SciTegic.value.DoubleValue
190.713

@<SCITEGIC>MOL_PROPERTY
U
SciTegic.value.DoubleValue
265.925

@<SCITEGIC>MOL_PROPERTY
W
SciTegic.value.DoubleValue
-75.212

@<SCITEGIC>MOL_PROPERTY
W(PB)
SciTegic.value.DoubleValue
-81.129

@<SCITEGIC>MOL_PROPERTY
W(SA)
SciTegic.value.DoubleValue
5.917

@<SCITEGIC>MOL_PROPERTY
Valence
SciTegic.value.DoubleValue
150.099

@<SCITEGIC>MOL_PROPERTY
Coulomb
SciTegic.value.DoubleValue
141.824

@<SCITEGIC>MOL_PROPERTY
VdW
SciTegic.value.DoubleValue
-25.999

@<SCITEGIC>MOL_PROPERTY
VdW6
SciTegic.value.DoubleValue
-182.476

@<SCITEGIC>MOL_PROPERTY
VdW12
SciTegic.value.DoubleValue
156.478

@<SCITEGIC>MOL_PROPERTY
Bond
SciTegic.value.DoubleValue
4.857

@<SCITEGIC>MOL_PROPERTY
Angle
SciTegic.value.DoubleValue
15.373

@<SCITEGIC>MOL_PROPERTY
Pdih
SciTegic.value.DoubleValue
129.789

@<SCITEGIC>MOL_PROPERTY
Idih
SciTegic.value.DoubleValue
0.079

@<SCITEGIC>MOL_PROPERTY
Tether
SciTegic.value.DoubleValue
0.000

@<TRIPOS>MOLECULE
CD_guest-s19_fast_vm2_rndm.mol2 : feprocess host+ligand conformer 23
         143         148           2
SMALL
USER_CHARGES
 
@<TRIPOS>ATOM
       1    C1      16.367932   15.422669   20.372979 C.3        1 MOL1         0.2972
       2    H1      15.388433   15.298725   19.893587 H          1 MOL1         0.0751
       3    O1      16.530059   16.749975   20.907300 O.3        1 MOL1        -0.3740
       4    C2      16.569652   14.388155   21.510894 C.3        1 MOL1         0.1003
       5    H2      16.504558   13.393615   21.050764 H          1 MOL1         0.0783
       6    O2      15.549402   14.499146   22.515446 O.3        1 MOL1        -0.5519
       7    H3      15.596969   15.419899   22.878729 H          1 MOL1         0.3769
       8    C3      17.976711   14.519216   22.148312 C.3        1 MOL1         0.1053
       9    H4      18.019799   15.464307   22.709231 H          1 MOL1         0.0783
      10    O3      18.177617   13.410976   23.031720 O.3        1 MOL1        -0.5519
      11    H5      17.393429   13.403559   23.622386 H          1 MOL1         0.3769
      12    C4      19.095080   14.543391   21.071450 C.3        1 MOL1         0.1018
      13    H6      19.230428   13.522846   20.690426 H          1 MOL1         0.0783
      14    C5      18.761555   15.487584   19.880780 C.3        1 MOL1         0.1043
      15    H7      18.812178   16.523930   20.236739 H          1 MOL1         0.0783
      16    O4      17.420819   15.207168   19.409531 O.3        1 MOL1        -0.3740
      17    C6      19.730423   15.381197   18.673845 C.3        1 MOL1         0.0138
      18    H8      20.531029   16.118729   18.803136 H          1 MOL1         0.0794
      19    H9      19.187628   15.671364   17.764346 H          1 MOL1         0.0794
      20    O5      20.295180   14.073349   18.510192 O.3        1 MOL1        -0.5486
      21    H10     20.869437   13.898890   19.291649 H          1 MOL1         0.3769
      22    C7      14.651740   20.307832   21.687683 C.3        1 MOL1         0.2972
      23    H11     13.981363   21.152136   21.893648 H          1 MOL1         0.0751
      24    O6      16.008172   20.737461   21.474646 O.3        1 MOL1        -0.3740
      25    C8      14.648944   19.324954   22.880983 C.3        1 MOL1         0.1003
      26    H12     13.632652   18.921453   22.977909 H          1 MOL1         0.0783
      27    O7      15.008098   20.003903   24.094998 O.3        1 MOL1        -0.5519
      28    H13     15.553135   20.787785   23.837310 H          1 MOL1         0.3769
      29    C9      15.609957   18.144514   22.611587 C.3        1 MOL1         0.1053
      30    H14     16.635303   18.536424   22.603255 H          1 MOL1         0.0783
      31    O8      15.473054   17.178336   23.658647 O.3        1 MOL1        -0.5519
      32    H15     15.553196   17.696490   24.490418 H          1 MOL1         0.3769
      33    C10     15.334308   17.481632   21.237117 C.3        1 MOL1         0.1018
      34    H16     14.461080   16.823115   21.334846 H          1 MOL1         0.0783
      35    C11     15.105673   18.511078   20.089573 C.3        1 MOL1         0.1043
      36    H17     16.081618   18.937122   19.825770 H          1 MOL1         0.0783
      37    O9      14.225842   19.585073   20.514788 O.3        1 MOL1        -0.3740
      38    C12     14.525344   17.884959   18.799238 C.3        1 MOL1         0.0138
      39    H18     15.303997   17.268083   18.330531 H          1 MOL1         0.0794
      40    H19     14.283320   18.693205   18.096067 H          1 MOL1         0.0794
      41    O10     13.364005   17.087193   19.060301 O.3        1 MOL1        -0.5486
      42    H20     13.003559   16.793050   18.195381 H          1 MOL1         0.3769
      43    C13     18.415517   24.033230   20.829467 C.3        1 MOL1         0.2972
      44    H21     18.845985   25.012172   20.582972 H          1 MOL1         0.0751
      45    O11     19.447502   23.034524   21.001665 O.3        1 MOL1        -0.3740
      46    C14     17.528079   24.114029   22.103251 C.3        1 MOL1         0.1003
      47    H22     16.692081   24.785477   21.867817 H          1 MOL1         0.0783
      48    O12     18.235582   24.645545   23.232471 O.3        1 MOL1        -0.5519
      49    H23     18.933259   23.982638   23.466027 H          1 MOL1         0.3769
      50    C15     16.937803   22.721991   22.432195 C.3        1 MOL1         0.1053
      51    H24     17.765548   22.048565   22.693561 H          1 MOL1         0.0783
      52    O13     16.032733   22.826675   23.536193 O.3        1 MOL1        -0.5519
      53    H25     16.488436   23.403325   24.189136 H          1 MOL1         0.3769
      54    C16     16.202319   22.133811   21.203307 C.3        1 MOL1         0.1018
      55    H26     15.252878   22.669632   21.074997 H          1 MOL1         0.0783
      56    C17     17.034860   22.240952   19.894533 C.3        1 MOL1         0.1043
      57    H27     17.877218   21.547370   19.967529 H          1 MOL1         0.0783
      58    O14     17.551061   23.589261   19.756579 O.3        1 MOL1        -0.3740
      59    C18     16.268574   21.846005   18.605016 C.3        1 MOL1         0.0138
      60    H28     16.421070   20.773201   18.429644 H          1 MOL1         0.0794
      61    H29     16.720050   22.373497   17.754237 H          1 MOL1         0.0794
      62    O15     14.863850   22.121034   18.667836 O.3        1 MOL1        -0.5486
      63    H30     14.459950   21.421706   19.231331 H          1 MOL1         0.3769
      64    C19     23.473117   22.515091   21.981353 C.3        1 MOL1         0.2972
      65    H31     24.507806   22.663815   22.315366 H          1 MOL1         0.0751
      66    O16     23.313677   21.253300   21.303457 O.3        1 MOL1        -0.3740
      67    C20     22.499049   22.580214   23.188586 C.3        1 MOL1         0.1003
      68    H32     22.617289   23.574406   23.638911 H          1 MOL1         0.0783
      69    O17     22.798656   21.583701   24.178792 O.3        1 MOL1        -0.5519
      70    H33     23.721526   21.275479   24.012530 H          1 MOL1         0.3769
      71    C21     21.029776   22.438489   22.728202 C.3        1 MOL1         0.1053
      72    H34     20.892877   21.422665   22.334740 H          1 MOL1         0.0783
      73    O18     20.178848   22.638621   23.860852 O.3        1 MOL1        -0.5519
      74    H35     20.561718   22.057859   24.557152 H          1 MOL1         0.3769
      75    C22     20.692271   23.451067   21.602593 C.3        1 MOL1         0.1018
      76    H36     20.620685   24.455681   22.039450 H          1 MOL1         0.0783
      77    C23     21.768897   23.445673   20.481474 C.3        1 MOL1         0.1043
      78    H37     21.692576   22.493688   19.939809 H          1 MOL1         0.0783
      79    O19     23.095126   23.559971   21.059366 O.3        1 MOL1        -0.3740
      80    C24     21.585882   24.580916   19.445951 C.3        1 MOL1         0.0138
      81    H38     20.697523   24.357558   18.839673 H          1 MOL1         0.0794
      82    H39     22.451062   24.580383   18.769549 H          1 MOL1         0.0794
      83    O20     21.439229   25.864098   20.067924 O.3        1 MOL1        -0.5486
      84    H40     21.407467   26.538676   19.354929 H          1 MOL1         0.3769
      85    C25     25.175679   17.581773   20.991851 C.3        1 MOL1         0.2972
      86    H41     25.823386   16.717108   20.802429 H          1 MOL1         0.0751
      87    O21     23.821971   17.184813   21.298063 O.3        1 MOL1        -0.3740
      88    C26     25.723145   18.449337   22.151570 C.3        1 MOL1         0.1003
      89    H42     26.690716   18.851296   21.823347 H          1 MOL1         0.0783
      90    O22     25.927077   17.678026   23.344106 O.3        1 MOL1        -0.5519
      91    H43     25.059620   17.258998   23.576304 H          1 MOL1         0.3769
      92    C27     24.780779   19.648322   22.421771 C.3        1 MOL1         0.1053
      93    H44     23.825366   19.256567   22.799326 H          1 MOL1         0.0783
      94    O23     25.389552   20.488153   23.409325 O.3        1 MOL1        -0.5519
      95    H45     25.794588   19.864993   24.055263 H          1 MOL1         0.3769
      96    C28     24.497962   20.450064   21.117829 C.3        1 MOL1         0.1018
      97    H46     25.369576   21.075723   20.888414 H          1 MOL1         0.0783
      98    C29     24.195973   19.533056   19.896556 C.3        1 MOL1         0.1043
      99    H47     23.190524   19.117423   20.021352 H          1 MOL1         0.0783
     100    O24     25.138532   18.434797   19.829362 O.3        1 MOL1        -0.3740
     101    C30     24.198064   20.282979   18.542019 C.3        1 MOL1         0.0138
     102    H48     23.315947   20.936489   18.504198 H          1 MOL1         0.0794
     103    H49     24.088681   19.544850   17.736538 H          1 MOL1         0.0794
     104    O25     25.385507   21.059294   18.339563 O.3        1 MOL1        -0.5486
     105    H50     25.318378   21.855715   18.908551 H          1 MOL1         0.3769
     106    C31     21.262801   14.045088   22.076660 C.3        1 MOL1         0.2972
     107    H51     20.779446   13.087218   22.308645 H          1 MOL1         0.0751
     108    O26     20.294008   15.041617   21.698746 O.3        1 MOL1        -0.3740
     109    C32     22.071302   14.535572   23.303345 C.3        1 MOL1         0.1003
     110    H52     22.876751   13.806940   23.462161 H          1 MOL1         0.0783
     111    O27     21.266866   14.582131   24.490623 O.3        1 MOL1        -0.5519
     112    H53     20.669872   15.377330   24.423879 H          1 MOL1         0.3769
     113    C33     22.727530   15.903729   23.010049 C.3        1 MOL1         0.1053
     114    H54     21.932460   16.645855   22.853135 H          1 MOL1         0.0783
     115    O28     23.533102   16.288487   24.127741 O.3        1 MOL1        -0.5519
     116    H55     22.936199   16.208687   24.906019 H          1 MOL1         0.3769
     117    C34     23.593236   15.827990   21.725463 C.3        1 MOL1         0.1018
     118    H56     24.528122   15.303255   21.960262 H          1 MOL1         0.0783
     119    C35     22.855525   15.123801   20.549801 C.3        1 MOL1         0.1043
     120    H57     22.098144   15.828141   20.188776 H          1 MOL1         0.0783
     121    O29     22.193327   13.903405   20.980507 O.3        1 MOL1        -0.3740
     122    C36     23.774353   14.786135   19.350298 C.3        1 MOL1         0.0138
     123    H58     24.144307   15.723029   18.911867 H          1 MOL1         0.0794
     124    H59     23.171273   14.287643   18.579859 H          1 MOL1         0.0794
     125    O30     24.875735   13.947467   19.722679 O.3        1 MOL1        -0.5486
     126    H60     25.493150   14.473129   20.271132 H          1 MOL1         0.3769
     127    C1      19.498422   18.127179   24.836806 C.2        1 MOL1         0.6173
     128    O1      19.267587   18.635833   25.916862 O.co2      1 MOL1        -0.6755
     129    O2      19.932584   16.996666   24.709659 O.co2      1 MOL1        -0.6755
     130    C2      19.230676   18.943333   23.622478 C.2        1 MOL1        -0.1504
     131    H1      18.847504   19.946038   23.795264 H          1 MOL1         0.0814
     132    C3      19.437488   18.491537   22.365966 C.2        1 MOL1        -0.1394
     133    H2      19.816345   17.487229   22.198470 H          1 MOL1         0.0817
     134    C4      19.168332   19.300761   21.120027 C.3        1 MOL1        -0.1849
     135    H3      18.940030   20.335444   21.397133 H          1 MOL1         0.0736
     136    H4      18.285888   18.902793   20.605715 H          1 MOL1         0.0736
     137    C5      20.382747   19.277273   20.174568 C.3        1 MOL1        -0.1866
     138    H5      21.227775   19.751921   20.685077 H          1 MOL1         0.0738
     139    H6      20.674478   18.238956   19.970709 H          1 MOL1         0.0738
     140    C6      20.106381   20.004829   18.844178 C.3        1 MOL1        -0.2879
     141    H7      19.243756   19.564410   18.327971 H          1 MOL1         0.0750
     142    H8      19.901334   21.068856   19.013755 H          1 MOL1         0.0750
     143    H9      20.974232   19.931466   18.177172 H          1 MOL1         0.0750
@<TRIPOS>BOND
    1     1     2    1
    2     1     3    1
    3     1     4    1
    4     4     5    1
    5     4     6    1
    6     6     7    1
    7     4     8    1
    8     8     9    1
    9     8    10    1
   10    10    11    1
   11     8    12    1
   12    12    13    1
   13    12    14    1
   14    14    15    1
   15     1    16    1
   16    14    16    1
   17    14    17    1
   18    17    18    1
   19    17    19    1
   20    17    20    1
   21    20    21    1
   22    22    23    1
   23    22    24    1
   24    22    25    1
   25    25    26    1
   26    25    27    1
   27    27    28    1
   28    25    29    1
   29    29    30    1
   30    29    31    1
   31    31    32    1
   32     3    33    1
   33    29    33    1
   34    33    34    1
   35    33    35    1
   36    35    36    1
   37    22    37    1
   38    35    37    1
   39    35    38    1
   40    38    39    1
   41    38    40    1
   42    38    41    1
   43    41    42    1
   44    43    44    1
   45    43    45    1
   46    43    46    1
   47    46    47    1
   48    46    48    1
   49    48    49    1
   50    46    50    1
   51    50    51    1
   52    50    52    1
   53    52    53    1
   54    24    54    1
   55    50    54    1
   56    54    55    1
   57    54    56    1
   58    56    57    1
   59    43    58    1
   60    56    58    1
   61    56    59    1
   62    59    60    1
   63    59    61    1
   64    59    62    1
   65    62    63    1
   66    64    65    1
   67    64    66    1
   68    64    67    1
   69    67    68    1
   70    67    69    1
   71    69    70    1
   72    67    71    1
   73    71    72    1
   74    71    73    1
   75    73    74    1
   76    45    75    1
   77    71    75    1
   78    75    76    1
   79    75    77    1
   80    77    78    1
   81    64    79    1
   82    77    79    1
   83    77    80    1
   84    80    81    1
   85    80    82    1
   86    80    83    1
   87    83    84    1
   88    85    86    1
   89    85    87    1
   90    85    88    1
   91    88    89    1
   92    88    90    1
   93    90    91    1
   94    88    92    1
   95    92    93    1
   96    92    94    1
   97    94    95    1
   98    66    96    1
   99    92    96    1
  100    96    97    1
  101    96    98    1
  102    98    99    1
  103    85   100    1
  104    98   100    1
  105    98   101    1
  106   101   102    1
  107   101   103    1
  108   101   104    1
  109   104   105    1
  110   106   107    1
  111    12   108    1
  112   106   108    1
  113   106   109    1
  114   109   110    1
  115   109   111    1
  116   111   112    1
  117   109   113    1
  118   113   114    1
  119   113   115    1
  120   115   116    1
  121    87   117    1
  122   113   117    1
  123   117   118    1
  124   117   119    1
  125   119   120    1
  126   106   121    1
  127   119   121    1
  128   119   122    1
  129   122   123    1
  130   122   124    1
  131   122   125    1
  132   125   126    1
  133   127   128    1
  134   127   129    2
  135   127   130    1
  136   130   131    1
  137   130   132    2
  138   132   133    1
  139   132   134    1
  140   134   135    1
  141   134   136    1
  142   134   137    1
  143   137   138    1
  144   137   139    1
  145   137   140    1
  146   140   141    1
  147   140   142    1
  148   140   143    1
@<TRIPOS>SUBSTRUCTURE
       1 MOL1            1 RESIDUE      1      MOL     
       2 MOL1          143 RESIDUE      1      MOL     
@<SCITEGIC>MOL_PROPERTY
feprocess Rank
SciTegic.value.IntegerValue
23

@<SCITEGIC>MOL_PROPERTY
Conf_Id
SciTegic.value.IntegerValue
657

@<SCITEGIC>MOL_PROPERTY
Probability
SciTegic.value.DoubleValue
0.20

@<SCITEGIC>MOL_PROPERTY
G
SciTegic.value.DoubleValue
498.332

@<SCITEGIC>MOL_PROPERTY
E
SciTegic.value.DoubleValue
317.520

@<SCITEGIC>MOL_PROPERTY
-TS
SciTegic.value.DoubleValue
180.812

@<SCITEGIC>MOL_PROPERTY
U+W
SciTegic.value.DoubleValue
191.432

@<SCITEGIC>MOL_PROPERTY
U
SciTegic.value.DoubleValue
272.529

@<SCITEGIC>MOL_PROPERTY
W
SciTegic.value.DoubleValue
-81.097

@<SCITEGIC>MOL_PROPERTY
W(PB)
SciTegic.value.DoubleValue
-87.112

@<SCITEGIC>MOL_PROPERTY
W(SA)
SciTegic.value.DoubleValue
6.015

@<SCITEGIC>MOL_PROPERTY
Valence
SciTegic.value.DoubleValue
147.828

@<SCITEGIC>MOL_PROPERTY
Coulomb
SciTegic.value.DoubleValue
148.761

@<SCITEGIC>MOL_PROPERTY
VdW
SciTegic.value.DoubleValue
-24.060

@<SCITEGIC>MOL_PROPERTY
VdW6
SciTegic.value.DoubleValue
-178.829

@<SCITEGIC>MOL_PROPERTY
VdW12
SciTegic.value.DoubleValue
154.770

@<SCITEGIC>MOL_PROPERTY
Bond
SciTegic.value.DoubleValue
4.923

@<SCITEGIC>MOL_PROPERTY
Angle
SciTegic.value.DoubleValue
14.902

@<SCITEGIC>MOL_PROPERTY
Pdih
SciTegic.value.DoubleValue
128.002

@<SCITEGIC>MOL_PROPERTY
Idih
SciTegic.value.DoubleValue
0.000

@<SCITEGIC>MOL_PROPERTY
Tether
SciTegic.value.DoubleValue
0.000

@<TRIPOS>MOLECULE
CD_guest-s19_fast_vm2_rndm.mol2 : feprocess host+ligand conformer 24
         143         148           2
SMALL
USER_CHARGES
 
@<TRIPOS>ATOM
       1    C1      16.281268   15.298100   21.633583 C.3        1 MOL1         0.2972
       2    H1      15.218846   15.150318   21.865937 H          1 MOL1         0.0751
       3    O1      16.533194   16.621145   21.120765 O.3        1 MOL1        -0.3740
       4    C2      17.150270   15.061713   22.896420 C.3        1 MOL1         0.1003
       5    H2      16.986285   14.022081   23.208582 H          1 MOL1         0.0783
       6    O2      16.781745   15.935364   23.975333 O.3        1 MOL1        -0.5519
       7    H3      15.931340   16.369147   23.722238 H          1 MOL1         0.3769
       8    C3      18.651573   15.231882   22.571692 C.3        1 MOL1         0.1053
       9    H4      18.821411   16.286339   22.321505 H          1 MOL1         0.0783
      10    O3      19.410856   14.880401   23.731809 O.3        1 MOL1        -0.5519
      11    H5      18.966024   15.360903   24.466508 H          1 MOL1         0.3769
      12    C4      19.077366   14.365966   21.356558 C.3        1 MOL1         0.1018
      13    H6      19.144361   13.318955   21.677392 H          1 MOL1         0.0783
      14    C5      18.079548   14.493950   20.169621 C.3        1 MOL1         0.1043
      15    H7      18.206450   15.492072   19.729583 H          1 MOL1         0.0783
      16    O4      16.711984   14.350488   20.633850 O.3        1 MOL1        -0.3740
      17    C6      18.321273   13.462211   19.041013 C.3        1 MOL1         0.0138
      18    H8      19.296097   13.667219   18.578151 H          1 MOL1         0.0794
      19    H9      17.558899   13.613825   18.265420 H          1 MOL1         0.0794
      20    O5      18.274206   12.108155   19.511496 O.3        1 MOL1        -0.5486
      21    H10     19.023208   11.967221   20.125862 H          1 MOL1         0.3769
      22    C7      14.711643   20.337749   20.870680 C.3        1 MOL1         0.2972
      23    H11     14.057375   21.197664   20.677846 H          1 MOL1         0.0751
      24    O6      16.021641   20.744773   21.315999 O.3        1 MOL1        -0.3740
      25    C8      14.111441   19.419535   21.963043 C.3        1 MOL1         0.1003
      26    H12     13.150802   19.046811   21.584239 H          1 MOL1         0.0783
      27    O7      13.885284   20.142953   23.183264 O.3        1 MOL1        -0.5519
      28    H13     14.703130   20.670721   23.371052 H          1 MOL1         0.3769
      29    C9      15.029338   18.197544   22.219298 C.3        1 MOL1         0.1053
      30    H14     15.962682   18.558239   22.674657 H          1 MOL1         0.0783
      31    O8      14.358663   17.308747   23.119308 O.3        1 MOL1        -0.5519
      32    H15     13.940097   17.897721   23.788241 H          1 MOL1         0.3769
      33    C10     15.387410   17.466920   20.894385 C.3        1 MOL1         0.1018
      34    H16     14.519694   16.883710   20.561189 H          1 MOL1         0.0783
      35    C11     15.801003   18.451456   19.764064 C.3        1 MOL1         0.1043
      36    H17     16.784684   18.865327   20.008374 H          1 MOL1         0.0783
      37    O9      14.854463   19.542127   19.674676 O.3        1 MOL1        -0.3740
      38    C12     15.934967   17.783090   18.373584 C.3        1 MOL1         0.0138
      39    H18     16.845567   17.168889   18.369425 H          1 MOL1         0.0794
      40    H19     16.072964   18.570704   17.621125 H          1 MOL1         0.0794
      41    O10     14.803633   16.971549   18.035078 O.3        1 MOL1        -0.5486
      42    H20     14.861846   16.149632   18.568050 H          1 MOL1         0.3769
      43    C13     18.465995   24.046425   21.845551 C.3        1 MOL1         0.2972
      44    H21     18.893129   25.049511   21.973943 H          1 MOL1         0.0751
      45    O11     19.500871   23.049683   21.744293 O.3        1 MOL1        -0.3740
      46    C14     17.530856   23.718153   23.037886 C.3        1 MOL1         0.1003
      47    H22     16.694195   24.426849   22.984025 H          1 MOL1         0.0783
      48    O12     18.183526   23.895317   24.304412 O.3        1 MOL1        -0.5519
      49    H23     18.916433   23.226129   24.383832 H          1 MOL1         0.3769
      50    C15     16.942398   22.296609   22.893695 C.3        1 MOL1         0.1053
      51    H24     17.764971   21.569232   22.937400 H          1 MOL1         0.0783
      52    O13     16.015408   22.051339   23.956659 O.3        1 MOL1        -0.5519
      53    H25     16.480356   22.345290   24.772062 H          1 MOL1         0.3769
      54    C16     16.224601   22.154336   21.529446 C.3        1 MOL1         0.1018
      55    H26     15.276607   22.706421   21.576821 H          1 MOL1         0.0783
      56    C17     17.086440   22.674118   20.345062 C.3        1 MOL1         0.1043
      57    H27     17.890427   21.945712   20.197828 H          1 MOL1         0.0783
      58    O14     17.670672   23.973198   20.640816 O.3        1 MOL1        -0.3740
      59    C18     16.303858   22.779230   19.014029 C.3        1 MOL1         0.0138
      60    H28     16.079509   21.764189   18.659655 H          1 MOL1         0.0794
      61    H29     16.948397   23.250965   18.260400 H          1 MOL1         0.0794
      62    O15     15.087410   23.521615   19.164189 O.3        1 MOL1        -0.5486
      63    H30     14.672186   23.595304   18.277386 H          1 MOL1         0.3769
      64    C19     23.508554   22.545004   20.784645 C.3        1 MOL1         0.2972
      65    H31     24.526665   22.619810   20.381966 H          1 MOL1         0.0751
      66    O16     23.290378   21.288075   21.449727 O.3        1 MOL1        -0.3740
      67    C20     23.234667   23.682711   21.799603 C.3        1 MOL1         0.1003
      68    H32     23.404778   24.631359   21.274154 H          1 MOL1         0.0783
      69    O17     24.134495   23.591709   22.917117 O.3        1 MOL1        -0.5519
      70    H33     24.072386   22.666979   23.266410 H          1 MOL1         0.3769
      71    C21     21.765913   23.671488   22.297199 C.3        1 MOL1         0.1053
      72    H34     21.654362   22.830985   22.993984 H          1 MOL1         0.0783
      73    O18     21.506640   24.900610   22.983084 O.3        1 MOL1        -0.5519
      74    H35     22.193237   24.960436   23.682092 H          1 MOL1         0.3769
      75    C22     20.738080   23.490399   21.144535 C.3        1 MOL1         0.1018
      76    H36     20.622356   24.454791   20.633032 H          1 MOL1         0.0783
      77    C23     21.169252   22.416038   20.103838 C.3        1 MOL1         0.1043
      78    H37     21.087643   21.426164   20.570317 H          1 MOL1         0.0783
      79    O19     22.542956   22.656561   19.720574 O.3        1 MOL1        -0.3740
      80    C24     20.317588   22.369014   18.807923 C.3        1 MOL1         0.0138
      81    H38     19.521646   21.626725   18.937993 H          1 MOL1         0.0794
      82    H39     20.949745   21.998500   17.989923 H          1 MOL1         0.0794
      83    O20     19.753030   23.637032   18.449675 O.3        1 MOL1        -0.5486
      84    H40     19.095616   23.875167   19.144488 H          1 MOL1         0.3769
      85    C25     25.070499   17.628223   22.101607 C.3        1 MOL1         0.2972
      86    H41     25.750449   16.786200   22.284422 H          1 MOL1         0.0751
      87    O21     23.715824   17.177272   21.911190 O.3        1 MOL1        -0.3740
      88    C26     25.095017   18.587986   23.315937 C.3        1 MOL1         0.1003
      89    H42     26.123503   18.954537   23.429494 H          1 MOL1         0.0783
      90    O22     24.704192   17.886603   24.506164 O.3        1 MOL1        -0.5519
      91    H43     24.051096   17.203358   24.223441 H          1 MOL1         0.3769
      92    C27     24.174880   19.808124   23.080295 C.3        1 MOL1         0.1053
      93    H44     23.135608   19.454068   23.086503 H          1 MOL1         0.0783
      94    O23     24.365016   20.765794   24.128502 O.3        1 MOL1        -0.5519
      95    H45     24.281170   20.252176   24.961904 H          1 MOL1         0.3769
      96    C28     24.452173   20.481897   21.715057 C.3        1 MOL1         0.1018
      97    H46     25.362091   21.090190   21.804983 H          1 MOL1         0.0783
      98    C29     24.597624   19.460713   20.549212 C.3        1 MOL1         0.1043
      99    H47     23.598420   19.063691   20.332481 H          1 MOL1         0.0783
     100    O24     25.471683   18.366767   20.930160 O.3        1 MOL1        -0.3740
     101    C30     25.141528   20.073363   19.235950 C.3        1 MOL1         0.0138
     102    H48     24.358108   20.700797   18.790238 H          1 MOL1         0.0794
     103    H49     25.345689   19.259155   18.527680 H          1 MOL1         0.0794
     104    O25     26.325447   20.850733   19.452833 O.3        1 MOL1        -0.5486
     105    H50     26.663891   21.130461   18.574436 H          1 MOL1         0.3769
     106    C31     21.427359   13.938381   20.677044 C.3        1 MOL1         0.2972
     107    H51     21.053867   12.986551   20.280491 H          1 MOL1         0.0751
     108    O26     20.348010   14.875053   20.895627 O.3        1 MOL1        -0.3740
     109    C32     22.235711   13.718442   21.984745 C.3        1 MOL1         0.1003
     110    H52     23.100572   13.095058   21.722686 H          1 MOL1         0.0783
     111    O27     21.469291   13.035787   22.987171 O.3        1 MOL1        -0.5519
     112    H53     20.749616   13.656396   23.266051 H          1 MOL1         0.3769
     113    C33     22.774000   15.066537   22.521746 C.3        1 MOL1         0.1053
     114    H54     21.917360   15.682614   22.826450 H          1 MOL1         0.0783
     115    O28     23.624012   14.829854   23.649247 O.3        1 MOL1        -0.5519
     116    H55     23.137012   14.188082   24.211690 H          1 MOL1         0.3769
     117    C34     23.560092   15.829603   21.425047 C.3        1 MOL1         0.1018
     118    H56     24.526307   15.326919   21.287715 H          1 MOL1         0.0783
     119    C35     22.805043   15.869793   20.061918 C.3        1 MOL1         0.1043
     120    H57     21.940969   16.534092   20.163442 H          1 MOL1         0.0783
     121    O29     22.337722   14.537688   19.729074 O.3        1 MOL1        -0.3740
     122    C36     23.629578   16.408516   18.863698 C.3        1 MOL1         0.0138
     123    H58     23.464615   17.489634   18.785064 H          1 MOL1         0.0794
     124    H59     23.232556   15.964812   17.940914 H          1 MOL1         0.0794
     125    O30     25.032946   16.142392   18.969299 O.3        1 MOL1        -0.5486
     126    H60     25.400137   16.795513   19.610028 H          1 MOL1         0.3769
     127    C1      19.989543   20.716139   24.920799 C.2        1 MOL1         0.6173
     128    O1      19.715186   19.928194   25.805944 O.co2      1 MOL1        -0.6755
     129    O2      19.994327   21.922246   25.073332 O.co2      1 MOL1        -0.6755
     130    C2      20.305861   20.215880   23.559634 C.2        1 MOL1        -0.1504
     131    H1      20.548801   20.973087   22.825457 H          1 MOL1         0.0814
     132    C3      20.293220   18.918006   23.192693 C.2        1 MOL1        -0.1394
     133    H2      20.045667   18.130026   23.903442 H          1 MOL1         0.0817
     134    C4      20.602592   18.477008   21.782396 C.3        1 MOL1        -0.1849
     135    H3      20.767291   17.395911   21.774329 H          1 MOL1         0.0736
     136    H4      21.532127   18.945820   21.438915 H          1 MOL1         0.0736
     137    C5      19.455070   18.834961   20.820427 C.3        1 MOL1        -0.1866
     138    H5      18.543826   18.333264   21.164216 H          1 MOL1         0.0738
     139    H6      19.255182   19.913476   20.863463 H          1 MOL1         0.0738
     140    C6      19.767986   18.422920   19.368258 C.3        1 MOL1        -0.2879
     141    H7      19.886919   17.334928   19.288754 H          1 MOL1         0.0750
     142    H8      18.955689   18.725179   18.696004 H          1 MOL1         0.0750
     143    H9      20.693174   18.897697   19.017221 H          1 MOL1         0.0750
@<TRIPOS>BOND
    1     1     2    1
    2     1     3    1
    3     1     4    1
    4     4     5    1
    5     4     6    1
    6     6     7    1
    7     4     8    1
    8     8     9    1
    9     8    10    1
   10    10    11    1
   11     8    12    1
   12    12    13    1
   13    12    14    1
   14    14    15    1
   15     1    16    1
   16    14    16    1
   17    14    17    1
   18    17    18    1
   19    17    19    1
   20    17    20    1
   21    20    21    1
   22    22    23    1
   23    22    24    1
   24    22    25    1
   25    25    26    1
   26    25    27    1
   27    27    28    1
   28    25    29    1
   29    29    30    1
   30    29    31    1
   31    31    32    1
   32     3    33    1
   33    29    33    1
   34    33    34    1
   35    33    35    1
   36    35    36    1
   37    22    37    1
   38    35    37    1
   39    35    38    1
   40    38    39    1
   41    38    40    1
   42    38    41    1
   43    41    42    1
   44    43    44    1
   45    43    45    1
   46    43    46    1
   47    46    47    1
   48    46    48    1
   49    48    49    1
   50    46    50    1
   51    50    51    1
   52    50    52    1
   53    52    53    1
   54    24    54    1
   55    50    54    1
   56    54    55    1
   57    54    56    1
   58    56    57    1
   59    43    58    1
   60    56    58    1
   61    56    59    1
   62    59    60    1
   63    59    61    1
   64    59    62    1
   65    62    63    1
   66    64    65    1
   67    64    66    1
   68    64    67    1
   69    67    68    1
   70    67    69    1
   71    69    70    1
   72    67    71    1
   73    71    72    1
   74    71    73    1
   75    73    74    1
   76    45    75    1
   77    71    75    1
   78    75    76    1
   79    75    77    1
   80    77    78    1
   81    64    79    1
   82    77    79    1
   83    77    80    1
   84    80    81    1
   85    80    82    1
   86    80    83    1
   87    83    84    1
   88    85    86    1
   89    85    87    1
   90    85    88    1
   91    88    89    1
   92    88    90    1
   93    90    91    1
   94    88    92    1
   95    92    93    1
   96    92    94    1
   97    94    95    1
   98    66    96    1
   99    92    96    1
  100    96    97    1
  101    96    98    1
  102    98    99    1
  103    85   100    1
  104    98   100    1
  105    98   101    1
  106   101   102    1
  107   101   103    1
  108   101   104    1
  109   104   105    1
  110   106   107    1
  111    12   108    1
  112   106   108    1
  113   106   109    1
  114   109   110    1
  115   109   111    1
  116   111   112    1
  117   109   113    1
  118   113   114    1
  119   113   115    1
  120   115   116    1
  121    87   117    1
  122   113   117    1
  123   117   118    1
  124   117   119    1
  125   119   120    1
  126   106   121    1
  127   119   121    1
  128   119   122    1
  129   122   123    1
  130   122   124    1
  131   122   125    1
  132   125   126    1
  133   127   128    1
  134   127   129    2
  135   127   130    1
  136   130   131    1
  137   130   132    2
  138   132   133    1
  139   132   134    1
  140   134   135    1
  141   134   136    1
  142   134   137    1
  143   137   138    1
  144   137   139    1
  145   137   140    1
  146   140   141    1
  147   140   142    1
  148   140   143    1
@<TRIPOS>SUBSTRUCTURE
       1 MOL1            1 RESIDUE      1      MOL     
       2 MOL1          143 RESIDUE      1      MOL     
@<SCITEGIC>MOL_PROPERTY
feprocess Rank
SciTegic.value.IntegerValue
24

@<SCITEGIC>MOL_PROPERTY
Conf_Id
SciTegic.value.IntegerValue
662

@<SCITEGIC>MOL_PROPERTY
Probability
SciTegic.value.DoubleValue
0.18

@<SCITEGIC>MOL_PROPERTY
G
SciTegic.value.DoubleValue
498.387

@<SCITEGIC>MOL_PROPERTY
E
SciTegic.value.DoubleValue
316.902

@<SCITEGIC>MOL_PROPERTY
-TS
SciTegic.value.DoubleValue
181.486

@<SCITEGIC>MOL_PROPERTY
U+W
SciTegic.value.DoubleValue
190.813

@<SCITEGIC>MOL_PROPERTY
U
SciTegic.value.DoubleValue
274.149

@<SCITEGIC>MOL_PROPERTY
W
SciTegic.value.DoubleValue
-83.336

@<SCITEGIC>MOL_PROPERTY
W(PB)
SciTegic.value.DoubleValue
-89.324

@<SCITEGIC>MOL_PROPERTY
W(SA)
SciTegic.value.DoubleValue
5.988

@<SCITEGIC>MOL_PROPERTY
Valence
SciTegic.value.DoubleValue
148.252

@<SCITEGIC>MOL_PROPERTY
Coulomb
SciTegic.value.DoubleValue
151.862

@<SCITEGIC>MOL_PROPERTY
VdW
SciTegic.value.DoubleValue
-25.964

@<SCITEGIC>MOL_PROPERTY
VdW6
SciTegic.value.DoubleValue
-179.235

@<SCITEGIC>MOL_PROPERTY
VdW12
SciTegic.value.DoubleValue
153.271

@<SCITEGIC>MOL_PROPERTY
Bond
SciTegic.value.DoubleValue
4.831

@<SCITEGIC>MOL_PROPERTY
Angle
SciTegic.value.DoubleValue
14.728

@<SCITEGIC>MOL_PROPERTY
Pdih
SciTegic.value.DoubleValue
128.691

@<SCITEGIC>MOL_PROPERTY
Idih
SciTegic.value.DoubleValue
0.003

@<SCITEGIC>MOL_PROPERTY
Tether
SciTegic.value.DoubleValue
0.000

@<TRIPOS>MOLECULE
CD_guest-s19_fast_vm2_rndm.mol2 : feprocess host+ligand conformer 25
         143         148           2
SMALL
USER_CHARGES
 
@<TRIPOS>ATOM
       1    C1      16.387706   15.540373   20.216072 C.3        1 MOL1         0.2972
       2    H1      15.408813   15.454323   19.727048 H          1 MOL1         0.0751
       3    O1      16.531113   16.799758   20.899619 O.3        1 MOL1        -0.3740
       4    C2      16.603153   14.398527   21.246948 C.3        1 MOL1         0.1003
       5    H2      16.546224   13.450062   20.697238 H          1 MOL1         0.0783
       6    O2      15.590402   14.408351   22.265129 O.3        1 MOL1        -0.5519
       7    H3      15.586131   15.313688   22.668304 H          1 MOL1         0.3769
       8    C3      18.012531   14.495553   21.883828 C.3        1 MOL1         0.1053
       9    H4      18.059226   15.416557   22.482015 H          1 MOL1         0.0783
      10    O3      18.242981   13.358745   22.723015 O.3        1 MOL1        -0.5519
      11    H5      17.412293   13.247675   23.237331 H          1 MOL1         0.3769
      12    C4      19.101756   14.574813   20.786450 C.3        1 MOL1         0.1018
      13    H6      19.162040   13.603872   20.277102 H          1 MOL1         0.0783
      14    C5      18.784419   15.674371   19.738571 C.3        1 MOL1         0.1043
      15    H7      18.832149   16.650162   20.236743 H          1 MOL1         0.0783
      16    O4      17.444226   15.456098   19.232131 O.3        1 MOL1        -0.3740
      17    C6      19.769617   15.733952   18.542179 C.3        1 MOL1         0.0138
      18    H8      20.583600   16.423223   18.798857 H          1 MOL1         0.0794
      19    H9      19.247082   16.170781   17.680793 H          1 MOL1         0.0794
      20    O5      20.315342   14.456103   18.190378 O.3        1 MOL1        -0.5486
      21    H10     20.951481   14.205157   18.900428 H          1 MOL1         0.3769
      22    C7      14.622772   20.312908   21.840263 C.3        1 MOL1         0.2972
      23    H11     13.935284   21.138666   22.064105 H          1 MOL1         0.0751
      24    O6      15.991393   20.753036   21.787332 O.3        1 MOL1        -0.3740
      25    C8      14.516860   19.224674   22.934207 C.3        1 MOL1         0.1003
      26    H12     13.494611   18.825334   22.908961 H          1 MOL1         0.0783
      27    O7      14.776652   19.784104   24.231444 O.3        1 MOL1        -0.5519
      28    H13     15.371919   20.562827   24.096564 H          1 MOL1         0.3769
      29    C9      15.493432   18.063383   22.639886 C.3        1 MOL1         0.1053
      30    H14     16.516910   18.444890   22.753442 H          1 MOL1         0.0783
      31    O8      15.269266   17.008144   23.580408 O.3        1 MOL1        -0.5519
      32    H15     15.224098   17.457143   24.454205 H          1 MOL1         0.3769
      33    C10     15.325825   17.529939   21.193772 C.3        1 MOL1         0.1018
      34    H16     14.435482   16.888055   21.159003 H          1 MOL1         0.0783
      35    C11     15.215494   18.663699   20.131744 C.3        1 MOL1         0.1043
      36    H17     16.216673   19.095637   20.005810 H          1 MOL1         0.0783
      37    O9      14.303975   19.704953   20.571962 O.3        1 MOL1        -0.3740
      38    C12     14.756057   18.169492   18.739302 C.3        1 MOL1         0.0138
      39    H18     15.571750   17.587918   18.288793 H          1 MOL1         0.0794
      40    H19     14.585484   19.043273   18.096110 H          1 MOL1         0.0794
      41    O10     13.570956   17.367490   18.814878 O.3        1 MOL1        -0.5486
      42    H20     13.292222   17.160099   17.896286 H          1 MOL1         0.3769
      43    C13     18.400999   24.113876   21.511827 C.3        1 MOL1         0.2972
      44    H21     18.801870   25.128319   21.391644 H          1 MOL1         0.0751
      45    O11     19.460534   23.147619   21.695553 O.3        1 MOL1        -0.3740
      46    C14     17.454459   24.072522   22.738716 C.3        1 MOL1         0.1003
      47    H22     16.604189   24.727557   22.509524 H          1 MOL1         0.0783
      48    O12     18.103780   24.575537   23.916157 O.3        1 MOL1        -0.5519
      49    H23     18.706475   23.866709   24.263687 H          1 MOL1         0.3769
      50    C15     16.904525   22.638034   22.928736 C.3        1 MOL1         0.1053
      51    H24     17.749760   21.961275   23.100181 H          1 MOL1         0.0783
      52    O13     16.004364   22.572534   24.041095 O.3        1 MOL1        -0.5519
      53    H25     16.584846   22.655206   24.843524 H          1 MOL1         0.3769
      54    C16     16.202597   22.166290   21.635785 C.3        1 MOL1         0.1018
      55    H26     15.263884   22.722631   21.515435 H          1 MOL1         0.0783
      56    C17     17.101904   22.370105   20.384099 C.3        1 MOL1         0.1043
      57    H27     17.942429   21.674430   20.470735 H          1 MOL1         0.0783
      58    O14     17.621104   23.726698   20.355144 O.3        1 MOL1        -0.3740
      59    C18     16.410581   22.061682   19.030071 C.3        1 MOL1         0.0138
      60    H28     16.570648   21.002400   18.792595 H          1 MOL1         0.0794
      61    H29     16.907997   22.641858   18.241319 H          1 MOL1         0.0794
      62    O15     15.005839   22.340177   19.033319 O.3        1 MOL1        -0.5486
      63    H30     14.567676   21.596434   19.507892 H          1 MOL1         0.3769
      64    C19     23.487980   22.501119   20.700335 C.3        1 MOL1         0.2972
      65    H31     24.498469   22.599867   20.283482 H          1 MOL1         0.0751
      66    O16     23.283562   21.203789   21.296069 O.3        1 MOL1        -0.3740
      67    C20     23.227034   23.581541   21.782075 C.3        1 MOL1         0.1003
      68    H32     23.337712   24.562897   21.303644 H          1 MOL1         0.0783
      69    O17     24.191671   23.465708   22.841286 O.3        1 MOL1        -0.5519
      70    H33     24.115493   22.550387   23.209973 H          1 MOL1         0.3769
      71    C21     21.771066   23.470373   22.310637 C.3        1 MOL1         0.1053
      72    H34     21.675839   22.508148   22.825611 H          1 MOL1         0.0783
      73    O18     21.475404   24.526479   23.229594 O.3        1 MOL1        -0.5519
      74    H35     20.897140   24.103312   23.916452 H          1 MOL1         0.3769
      75    C22     20.749520   23.491132   21.141748 C.3        1 MOL1         0.1018
      76    H36     20.748844   24.497425   20.703068 H          1 MOL1         0.0783
      77    C23     21.128500   22.452848   20.045717 C.3        1 MOL1         0.1043
      78    H37     21.023184   21.446857   20.471811 H          1 MOL1         0.0783
      79    O19     22.506431   22.668882   19.656263 O.3        1 MOL1        -0.3740
      80    C24     20.270930   22.494850   18.755138 C.3        1 MOL1         0.0138
      81    H38     19.406211   21.834855   18.885163 H          1 MOL1         0.0794
      82    H39     20.862853   22.072096   17.932417 H          1 MOL1         0.0794
      83    O20     19.830265   23.812870   18.409987 O.3        1 MOL1        -0.5486
      84    H40     19.067762   24.020665   18.998809 H          1 MOL1         0.3769
      85    C25     25.162792   17.581952   21.978515 C.3        1 MOL1         0.2972
      86    H41     25.866699   16.752927   22.124457 H          1 MOL1         0.0751
      87    O21     23.797473   17.126060   21.917981 O.3        1 MOL1        -0.3740
      88    C26     25.266726   18.590005   23.149387 C.3        1 MOL1         0.1003
      89    H42     26.288393   18.991585   23.150005 H          1 MOL1         0.0783
      90    O22     25.013654   17.941542   24.406363 O.3        1 MOL1        -0.5519
      91    H43     24.337713   17.236700   24.242706 H          1 MOL1         0.3769
      92    C27     24.289993   19.772885   22.941231 C.3        1 MOL1         0.1053
      93    H44     23.266303   19.387766   23.023410 H          1 MOL1         0.0783
      94    O23     24.515782   20.755533   23.956761 O.3        1 MOL1        -0.5519
      95    H45     24.541945   20.247907   24.798118 H          1 MOL1         0.3769
      96    C28     24.461642   20.411010   21.538710 C.3        1 MOL1         0.1018
      97    H46     25.372944   21.023702   21.548356 H          1 MOL1         0.0783
      98    C29     24.541532   19.352104   20.401716 C.3        1 MOL1         0.1043
      99    H47     23.540268   18.922670   20.265240 H          1 MOL1         0.0783
     100    O24     25.464462   18.294131   20.760749 O.3        1 MOL1        -0.3740
     101    C30     24.978985   19.936647   19.037007 C.3        1 MOL1         0.0138
     102    H48     24.156635   20.546517   18.639143 H          1 MOL1         0.0794
     103    H49     25.137283   19.106574   18.335642 H          1 MOL1         0.0794
     104    O25     26.166734   20.731912   19.143489 O.3        1 MOL1        -0.5486
     105    H50     26.424866   21.004574   18.236073 H          1 MOL1         0.3769
     106    C31     21.312539   13.865775   21.521633 C.3        1 MOL1         0.2972
     107    H51     20.849042   12.876334   21.415321 H          1 MOL1         0.0751
     108    O26     20.337669   14.921618   21.432940 O.3        1 MOL1        -0.3740
     109    C32     22.013194   13.972219   22.896471 C.3        1 MOL1         0.1003
     110    H52     22.806598   13.214181   22.927853 H          1 MOL1         0.0783
     111    O27     21.075933   13.727269   23.957410 O.3        1 MOL1        -0.5519
     112    H53     20.174186   13.876051   23.580326 H          1 MOL1         0.3769
     113    C33     22.666691   15.362411   23.059771 C.3        1 MOL1         0.1053
     114    H54     21.861111   16.105420   23.094664 H          1 MOL1         0.0783
     115    O28     23.412097   15.404490   24.280328 O.3        1 MOL1        -0.5519
     116    H55     22.818213   14.999261   24.951308 H          1 MOL1         0.3769
     117    C34     23.586786   15.702427   21.861401 C.3        1 MOL1         0.1018
     118    H56     24.521785   15.135956   21.961484 H          1 MOL1         0.0783
     119    C35     22.928733   15.393753   20.487099 C.3        1 MOL1         0.1043
     120    H57     22.165177   16.159845   20.307674 H          1 MOL1         0.0783
     121    O29     22.298189   14.085301   20.491438 O.3        1 MOL1        -0.3740
     122    C36     23.925947   15.449938   19.305794 C.3        1 MOL1         0.0138
     123    H58     24.249017   16.490608   19.171080 H          1 MOL1         0.0794
     124    H59     23.402287   15.148997   18.388486 H          1 MOL1         0.0794
     125    O30     25.067471   14.611889   19.525931 O.3        1 MOL1        -0.5486
     126    H60     25.643906   14.679733   18.733997 H          1 MOL1         0.3769
     127    C1      19.200673   21.877997   25.272125 C.2        1 MOL1         0.6173
     128    O1      18.175238   22.164837   25.859652 O.co2      1 MOL1        -0.6755
     129    O2      20.011303   22.721863   24.932622 O.co2      1 MOL1        -0.6755
     130    C2      19.331103   20.479457   24.778604 C.2        1 MOL1        -0.1504
     131    H1      18.500310   19.817997   25.012403 H          1 MOL1         0.0814
     132    C3      20.376476   20.028406   24.049400 C.2        1 MOL1        -0.1394
     133    H2      21.213668   20.680584   23.814253 H          1 MOL1         0.0817
     134    C4      20.471094   18.626230   23.485768 C.3        1 MOL1        -0.1849
     135    H3      19.604191   18.025431   23.791989 H          1 MOL1         0.0736
     136    H4      21.354816   18.133968   23.909971 H          1 MOL1         0.0736
     137    C5      20.575369   18.627765   21.943452 C.3        1 MOL1        -0.1866
     138    H5      21.461594   19.193785   21.632955 H          1 MOL1         0.0738
     139    H6      20.719176   17.600325   21.589247 H          1 MOL1         0.0738
     140    C6      19.325703   19.228458   21.269921 C.3        1 MOL1        -0.2879
     141    H7      19.170050   20.260496   21.604253 H          1 MOL1         0.0750
     142    H8      19.431027   19.230362   20.178159 H          1 MOL1         0.0750
     143    H9      18.430536   18.652322   21.528099 H          1 MOL1         0.0750
@<TRIPOS>BOND
    1     1     2    1
    2     1     3    1
    3     1     4    1
    4     4     5    1
    5     4     6    1
    6     6     7    1
    7     4     8    1
    8     8     9    1
    9     8    10    1
   10    10    11    1
   11     8    12    1
   12    12    13    1
   13    12    14    1
   14    14    15    1
   15     1    16    1
   16    14    16    1
   17    14    17    1
   18    17    18    1
   19    17    19    1
   20    17    20    1
   21    20    21    1
   22    22    23    1
   23    22    24    1
   24    22    25    1
   25    25    26    1
   26    25    27    1
   27    27    28    1
   28    25    29    1
   29    29    30    1
   30    29    31    1
   31    31    32    1
   32     3    33    1
   33    29    33    1
   34    33    34    1
   35    33    35    1
   36    35    36    1
   37    22    37    1
   38    35    37    1
   39    35    38    1
   40    38    39    1
   41    38    40    1
   42    38    41    1
   43    41    42    1
   44    43    44    1
   45    43    45    1
   46    43    46    1
   47    46    47    1
   48    46    48    1
   49    48    49    1
   50    46    50    1
   51    50    51    1
   52    50    52    1
   53    52    53    1
   54    24    54    1
   55    50    54    1
   56    54    55    1
   57    54    56    1
   58    56    57    1
   59    43    58    1
   60    56    58    1
   61    56    59    1
   62    59    60    1
   63    59    61    1
   64    59    62    1
   65    62    63    1
   66    64    65    1
   67    64    66    1
   68    64    67    1
   69    67    68    1
   70    67    69    1
   71    69    70    1
   72    67    71    1
   73    71    72    1
   74    71    73    1
   75    73    74    1
   76    45    75    1
   77    71    75    1
   78    75    76    1
   79    75    77    1
   80    77    78    1
   81    64    79    1
   82    77    79    1
   83    77    80    1
   84    80    81    1
   85    80    82    1
   86    80    83    1
   87    83    84    1
   88    85    86    1
   89    85    87    1
   90    85    88    1
   91    88    89    1
   92    88    90    1
   93    90    91    1
   94    88    92    1
   95    92    93    1
   96    92    94    1
   97    94    95    1
   98    66    96    1
   99    92    96    1
  100    96    97    1
  101    96    98    1
  102    98    99    1
  103    85   100    1
  104    98   100    1
  105    98   101    1
  106   101   102    1
  107   101   103    1
  108   101   104    1
  109   104   105    1
  110   106   107    1
  111    12   108    1
  112   106   108    1
  113   106   109    1
  114   109   110    1
  115   109   111    1
  116   111   112    1
  117   109   113    1
  118   113   114    1
  119   113   115    1
  120   115   116    1
  121    87   117    1
  122   113   117    1
  123   117   118    1
  124   117   119    1
  125   119   120    1
  126   106   121    1
  127   119   121    1
  128   119   122    1
  129   122   123    1
  130   122   124    1
  131   122   125    1
  132   125   126    1
  133   127   128    1
  134   127   129    2
  135   127   130    1
  136   130   131    1
  137   130   132    2
  138   132   133    1
  139   132   134    1
  140   134   135    1
  141   134   136    1
  142   134   137    1
  143   137   138    1
  144   137   139    1
  145   137   140    1
  146   140   141    1
  147   140   142    1
  148   140   143    1
@<TRIPOS>SUBSTRUCTURE
       1 MOL1            1 RESIDUE      1      MOL     
       2 MOL1          143 RESIDUE      1      MOL     
@<SCITEGIC>MOL_PROPERTY
feprocess Rank
SciTegic.value.IntegerValue
25

@<SCITEGIC>MOL_PROPERTY
Conf_Id
SciTegic.value.IntegerValue
68

@<SCITEGIC>MOL_PROPERTY
Probability
SciTegic.value.DoubleValue
0.17

@<SCITEGIC>MOL_PROPERTY
G
SciTegic.value.DoubleValue
498.408

@<SCITEGIC>MOL_PROPERTY
E
SciTegic.value.DoubleValue
314.767

@<SCITEGIC>MOL_PROPERTY
-TS
SciTegic.value.DoubleValue
183.642

@<SCITEGIC>MOL_PROPERTY
U+W
SciTegic.value.DoubleValue
188.679

@<SCITEGIC>MOL_PROPERTY
U
SciTegic.value.DoubleValue
266.311

@<SCITEGIC>MOL_PROPERTY
W
SciTegic.value.DoubleValue
-77.632

@<SCITEGIC>MOL_PROPERTY
W(PB)
SciTegic.value.DoubleValue
-83.650

@<SCITEGIC>MOL_PROPERTY
W(SA)
SciTegic.value.DoubleValue
6.018

@<SCITEGIC>MOL_PROPERTY
Valence
SciTegic.value.DoubleValue
151.658

@<SCITEGIC>MOL_PROPERTY
Coulomb
SciTegic.value.DoubleValue
139.123

@<SCITEGIC>MOL_PROPERTY
VdW
SciTegic.value.DoubleValue
-24.470

@<SCITEGIC>MOL_PROPERTY
VdW6
SciTegic.value.DoubleValue
-182.736

@<SCITEGIC>MOL_PROPERTY
VdW12
SciTegic.value.DoubleValue
158.266

@<SCITEGIC>MOL_PROPERTY
Bond
SciTegic.value.DoubleValue
4.966

@<SCITEGIC>MOL_PROPERTY
Angle
SciTegic.value.DoubleValue
14.005

@<SCITEGIC>MOL_PROPERTY
Pdih
SciTegic.value.DoubleValue
132.619

@<SCITEGIC>MOL_PROPERTY
Idih
SciTegic.value.DoubleValue
0.068

@<SCITEGIC>MOL_PROPERTY
Tether
SciTegic.value.DoubleValue
0.000

@<TRIPOS>MOLECULE
CD_guest-s19_fast_vm2_rndm.mol2 : feprocess host+ligand conformer 26
         143         148           2
SMALL
USER_CHARGES
 
@<TRIPOS>ATOM
       1    C1      16.266305   15.025116   21.573082 C.3        1 MOL1         0.2972
       2    H1      15.200227   14.840187   21.752125 H          1 MOL1         0.0751
       3    O1      16.544526   16.434883   21.404900 O.3        1 MOL1        -0.3740
       4    C2      17.133798   14.447135   22.721315 C.3        1 MOL1         0.1003
       5    H2      17.028745   13.354988   22.689275 H          1 MOL1         0.0783
       6    O2      16.677053   14.905738   24.000864 O.3        1 MOL1        -0.5519
       7    H3      16.810116   15.885529   24.027486 H          1 MOL1         0.3769
       8    C3      18.625520   14.781205   22.460340 C.3        1 MOL1         0.1053
       9    H4      18.738431   15.872454   22.465875 H          1 MOL1         0.0783
      10    O3      19.469450   14.204360   23.465546 O.3        1 MOL1        -0.5519
      11    H5      19.699858   14.948011   24.085346 H          1 MOL1         0.3769
      12    C4      19.059304   14.261131   21.064256 C.3        1 MOL1         0.1018
      13    H6      19.188105   13.172412   21.125595 H          1 MOL1         0.0783
      14    C5      18.042048   14.612578   19.937599 C.3        1 MOL1         0.1043
      15    H7      18.136955   15.682010   19.713012 H          1 MOL1         0.0783
      16    O4      16.683254   14.347753   20.369816 O.3        1 MOL1        -0.3740
      17    C6      18.293090   13.850718   18.614357 C.3        1 MOL1         0.0138
      18    H8      19.204863   14.250704   18.150391 H          1 MOL1         0.0794
      19    H9      17.461128   14.058638   17.928271 H          1 MOL1         0.0794
      20    O5      18.429716   12.438667   18.818737 O.3        1 MOL1        -0.5486
      21    H10     18.501821   12.015425   17.935439 H          1 MOL1         0.3769
      22    C7      15.077016   20.290775   21.825517 C.3        1 MOL1         0.2972
      23    H11     14.473265   21.181484   22.037321 H          1 MOL1         0.0751
      24    O6      16.195224   20.597271   20.966943 O.3        1 MOL1        -0.3740
      25    C8      15.609020   19.664140   23.141495 C.3        1 MOL1         0.1003
      26    H12     14.733752   19.389832   23.744261 H          1 MOL1         0.0783
      27    O7      16.406394   20.603232   23.879930 O.3        1 MOL1        -0.5519
      28    H13     16.121190   21.506433   23.607760 H          1 MOL1         0.3769
      29    C9      16.412385   18.370930   22.851220 C.3        1 MOL1         0.1053
      30    H14     17.325216   18.648924   22.310930 H          1 MOL1         0.0783
      31    O8      16.751128   17.734300   24.086293 O.3        1 MOL1        -0.5519
      32    H15     17.505127   18.255634   24.474286 H          1 MOL1         0.3769
      33    C10     15.609556   17.384982   21.959647 C.3        1 MOL1         0.1018
      34    H16     14.844923   16.897646   22.577838 H          1 MOL1         0.0783
      35    C11     14.945529   18.093796   20.745634 C.3        1 MOL1         0.1043
      36    H17     15.739580   18.364568   20.036946 H          1 MOL1         0.0783
      37    O9      14.261596   19.297748   21.170051 O.3        1 MOL1        -0.3740
      38    C12     13.936380   17.201926   19.981569 C.3        1 MOL1         0.0138
      39    H18     14.481585   16.367300   19.519922 H          1 MOL1         0.0794
      40    H19     13.502146   17.793953   19.165104 H          1 MOL1         0.0794
      41    O10     12.892595   16.699697   20.827013 O.3        1 MOL1        -0.5486
      42    H20     13.284286   16.049991   21.445674 H          1 MOL1         0.3769
      43    C13     18.529682   23.901205   20.059937 C.3        1 MOL1         0.2972
      44    H21     18.977752   24.827971   19.679126 H          1 MOL1         0.0751
      45    O11     19.530687   23.018232   20.614092 O.3        1 MOL1        -0.3740
      46    C14     17.431212   24.193970   21.114016 C.3        1 MOL1         0.1003
      47    H22     16.619704   24.716089   20.590190 H          1 MOL1         0.0783
      48    O12     17.899923   25.038866   22.174147 O.3        1 MOL1        -0.5519
      49    H23     18.587356   24.522970   22.665575 H          1 MOL1         0.3769
      50    C15     16.855657   22.867020   21.668062 C.3        1 MOL1         0.1053
      51    H24     17.661238   22.333148   22.191496 H          1 MOL1         0.0783
      52    O13     15.800598   23.182490   22.584409 O.3        1 MOL1        -0.5519
      53    H25     16.112267   23.985077   23.062215 H          1 MOL1         0.3769
      54    C16     16.341968   21.960094   20.509944 C.3        1 MOL1         0.1018
      55    H26     15.385832   22.356568   20.146466 H          1 MOL1         0.0783
      56    C17     17.351135   21.883895   19.327155 C.3        1 MOL1         0.1043
      57    H27     18.188715   21.253396   19.645490 H          1 MOL1         0.0783
      58    O14     17.863987   23.197899   18.989357 O.3        1 MOL1        -0.3740
      59    C18     16.764232   21.232830   18.050617 C.3        1 MOL1         0.0138
      60    H28     16.635294   20.157675   18.235223 H          1 MOL1         0.0794
      61    H29     17.498051   21.335038   17.240303 H          1 MOL1         0.0794
      62    O15     15.513873   21.812213   17.657126 O.3        1 MOL1        -0.5486
      63    H30     14.830810   21.495149   18.285872 H          1 MOL1         0.3769
      64    C19     23.308756   22.783227   22.306482 C.3        1 MOL1         0.2972
      65    H31     24.295147   22.969750   22.749710 H          1 MOL1         0.0751
      66    O16     23.117758   21.391407   21.984388 O.3        1 MOL1        -0.3740
      67    C20     22.191546   23.225186   23.282560 C.3        1 MOL1         0.1003
      68    H32     22.291226   24.309409   23.423288 H          1 MOL1         0.0783
      69    O17     22.317917   22.579959   24.558757 O.3        1 MOL1        -0.5519
      70    H33     22.797315   21.726770   24.411992 H          1 MOL1         0.3769
      71    C21     20.798192   22.956878   22.670825 C.3        1 MOL1         0.1053
      72    H34     20.674548   21.872095   22.557650 H          1 MOL1         0.0783
      73    O18     19.807178   23.465088   23.567407 O.3        1 MOL1        -0.5519
      74    H35     20.070116   23.116459   24.449273 H          1 MOL1         0.3769
      75    C22     20.669344   23.614757   21.270181 C.3        1 MOL1         0.1018
      76    H36     20.548753   24.698696   21.397011 H          1 MOL1         0.0783
      77    C23     21.904338   23.321573   20.367942 C.3        1 MOL1         0.1043
      78    H37     21.855789   22.267665   20.063840 H          1 MOL1         0.0783
      79    O19     23.143856   23.545487   21.092066 O.3        1 MOL1        -0.3740
      80    C24     21.931872   24.168940   19.073683 C.3        1 MOL1         0.0138
      81    H38     21.126719   23.819850   18.412928 H          1 MOL1         0.0794
      82    H39     22.882610   23.986110   18.555228 H          1 MOL1         0.0794
      83    O20     21.769333   25.567946   19.339492 O.3        1 MOL1        -0.5486
      84    H40     21.870437   26.046666   18.487965 H          1 MOL1         0.3769
      85    C25     24.953938   17.667704   21.990961 C.3        1 MOL1         0.2972
      86    H41     25.664675   16.831296   22.010600 H          1 MOL1         0.0751
      87    O21     23.607715   17.207976   21.767342 O.3        1 MOL1        -0.3740
      88    C26     24.978082   18.408034   23.349721 C.3        1 MOL1         0.1003
      89    H42     25.995916   18.790650   23.500643 H          1 MOL1         0.0783
      90    O22     24.647058   17.506737   24.416783 O.3        1 MOL1        -0.5519
      91    H43     23.971895   16.885367   24.056725 H          1 MOL1         0.3769
      92    C27     24.008746   19.613194   23.342604 C.3        1 MOL1         0.1053
      93    H44     22.980384   19.230082   23.279861 H          1 MOL1         0.0783
      94    O23     24.180659   20.350610   24.555124 O.3        1 MOL1        -0.5519
      95    H45     24.211414   19.668617   25.263550 H          1 MOL1         0.3769
      96    C28     24.262942   20.528424   22.118877 C.3        1 MOL1         0.1018
      97    H46     25.192334   21.090354   22.277341 H          1 MOL1         0.0783
      98    C29     24.368566   19.720794   20.797637 C.3        1 MOL1         0.1043
      99    H47     23.374271   19.322053   20.580463 H          1 MOL1         0.0783
     100    O24     25.292455   18.612375   20.950515 O.3        1 MOL1        -0.3740
     101    C30     24.788046   20.568473   19.570884 C.3        1 MOL1         0.0138
     102    H48     23.921044   21.155973   19.240520 H          1 MOL1         0.0794
     103    H49     25.049509   19.889245   18.748579 H          1 MOL1         0.0794
     104    O25     25.883584   21.447140   19.850782 O.3        1 MOL1        -0.5486
     105    H50     25.515643   22.233072   20.310119 H          1 MOL1         0.3769
     106    C31     21.351267   14.126440   20.180175 C.3        1 MOL1         0.2972
     107    H51     20.954862   13.254747   19.644033 H          1 MOL1         0.0751
     108    O26     20.293091   14.930347   20.741429 O.3        1 MOL1        -0.3740
     109    C32     22.325743   13.695855   21.308588 C.3        1 MOL1         0.1003
     110    H52     23.165431   13.177610   20.827515 H          1 MOL1         0.0783
     111    O27     21.702298   12.799971   22.241407 O.3        1 MOL1        -0.5519
     112    H53     20.940232   13.285978   22.646864 H          1 MOL1         0.3769
     113    C33     22.891863   14.936906   22.040880 C.3        1 MOL1         0.1053
     114    H54     22.069348   15.409120   22.594473 H          1 MOL1         0.0783
     115    O28     23.911419   14.525336   22.956824 O.3        1 MOL1        -0.5519
     116    H55     23.525454   13.769425   23.451823 H          1 MOL1         0.3769
     117    C34     23.473427   15.972089   21.041307 C.3        1 MOL1         0.1018
     118    H56     24.440993   15.596418   20.683821 H          1 MOL1         0.0783
     119    C35     22.542289   16.231436   19.820424 C.3        1 MOL1         0.1043
     120    H57     21.667984   16.795594   20.166336 H          1 MOL1         0.0783
     121    O29     22.102872   14.963244   19.275234 O.3        1 MOL1        -0.3740
     122    C36     23.177507   17.059456   18.672021 C.3        1 MOL1         0.0138
     123    H58     22.941558   18.117926   18.832127 H          1 MOL1         0.0794
     124    H59     22.693696   16.773146   17.728604 H          1 MOL1         0.0794
     125    O30     24.596498   16.894212   18.562709 O.3        1 MOL1        -0.5486
     126    H60     25.004929   17.388467   19.311410 H          1 MOL1         0.3769
     127    C1      20.023188   17.688311   24.248035 C.2        1 MOL1         0.6173
     128    O1      20.385843   16.599956   24.654305 O.co2      1 MOL1        -0.6755
     129    O2      19.353214   18.462363   24.906071 O.co2      1 MOL1        -0.6755
     130    C2      20.336929   18.016023   22.832600 C.2        1 MOL1        -0.1504
     131    H1      20.897489   17.262889   22.291130 H          1 MOL1         0.0814
     132    C3      19.940117   19.142160   22.201077 C.2        1 MOL1        -0.1394
     133    H2      19.359681   19.903989   22.721516 H          1 MOL1         0.0817
     134    C4      20.224443   19.404929   20.740389 C.3        1 MOL1        -0.1849
     135    H3      21.256372   19.126632   20.510614 H          1 MOL1         0.0736
     136    H4      20.137109   20.476045   20.530238 H          1 MOL1         0.0736
     137    C5      19.265897   18.607959   19.833440 C.3        1 MOL1        -0.1866
     138    H5      19.347949   17.539819   20.069253 H          1 MOL1         0.0738
     139    H6      18.229154   18.897352   20.047850 H          1 MOL1         0.0738
     140    C6      19.571831   18.828254   18.338792 C.3        1 MOL1        -0.2879
     141    H7      19.520273   19.892568   18.077485 H          1 MOL1         0.0750
     142    H8      20.575378   18.465192   18.086957 H          1 MOL1         0.0750
     143    H9      18.850209   18.287049   17.713721 H          1 MOL1         0.0750
@<TRIPOS>BOND
    1     1     2    1
    2     1     3    1
    3     1     4    1
    4     4     5    1
    5     4     6    1
    6     6     7    1
    7     4     8    1
    8     8     9    1
    9     8    10    1
   10    10    11    1
   11     8    12    1
   12    12    13    1
   13    12    14    1
   14    14    15    1
   15     1    16    1
   16    14    16    1
   17    14    17    1
   18    17    18    1
   19    17    19    1
   20    17    20    1
   21    20    21    1
   22    22    23    1
   23    22    24    1
   24    22    25    1
   25    25    26    1
   26    25    27    1
   27    27    28    1
   28    25    29    1
   29    29    30    1
   30    29    31    1
   31    31    32    1
   32     3    33    1
   33    29    33    1
   34    33    34    1
   35    33    35    1
   36    35    36    1
   37    22    37    1
   38    35    37    1
   39    35    38    1
   40    38    39    1
   41    38    40    1
   42    38    41    1
   43    41    42    1
   44    43    44    1
   45    43    45    1
   46    43    46    1
   47    46    47    1
   48    46    48    1
   49    48    49    1
   50    46    50    1
   51    50    51    1
   52    50    52    1
   53    52    53    1
   54    24    54    1
   55    50    54    1
   56    54    55    1
   57    54    56    1
   58    56    57    1
   59    43    58    1
   60    56    58    1
   61    56    59    1
   62    59    60    1
   63    59    61    1
   64    59    62    1
   65    62    63    1
   66    64    65    1
   67    64    66    1
   68    64    67    1
   69    67    68    1
   70    67    69    1
   71    69    70    1
   72    67    71    1
   73    71    72    1
   74    71    73    1
   75    73    74    1
   76    45    75    1
   77    71    75    1
   78    75    76    1
   79    75    77    1
   80    77    78    1
   81    64    79    1
   82    77    79    1
   83    77    80    1
   84    80    81    1
   85    80    82    1
   86    80    83    1
   87    83    84    1
   88    85    86    1
   89    85    87    1
   90    85    88    1
   91    88    89    1
   92    88    90    1
   93    90    91    1
   94    88    92    1
   95    92    93    1
   96    92    94    1
   97    94    95    1
   98    66    96    1
   99    92    96    1
  100    96    97    1
  101    96    98    1
  102    98    99    1
  103    85   100    1
  104    98   100    1
  105    98   101    1
  106   101   102    1
  107   101   103    1
  108   101   104    1
  109   104   105    1
  110   106   107    1
  111    12   108    1
  112   106   108    1
  113   106   109    1
  114   109   110    1
  115   109   111    1
  116   111   112    1
  117   109   113    1
  118   113   114    1
  119   113   115    1
  120   115   116    1
  121    87   117    1
  122   113   117    1
  123   117   118    1
  124   117   119    1
  125   119   120    1
  126   106   121    1
  127   119   121    1
  128   119   122    1
  129   122   123    1
  130   122   124    1
  131   122   125    1
  132   125   126    1
  133   127   128    1
  134   127   129    2
  135   127   130    1
  136   130   131    1
  137   130   132    2
  138   132   133    1
  139   132   134    1
  140   134   135    1
  141   134   136    1
  142   134   137    1
  143   137   138    1
  144   137   139    1
  145   137   140    1
  146   140   141    1
  147   140   142    1
  148   140   143    1
@<TRIPOS>SUBSTRUCTURE
       1 MOL1            1 RESIDUE      1      MOL     
       2 MOL1          143 RESIDUE      1      MOL     
@<SCITEGIC>MOL_PROPERTY
feprocess Rank
SciTegic.value.IntegerValue
26

@<SCITEGIC>MOL_PROPERTY
Conf_Id
SciTegic.value.IntegerValue
981

@<SCITEGIC>MOL_PROPERTY
Probability
SciTegic.value.DoubleValue
0.17

@<SCITEGIC>MOL_PROPERTY
G
SciTegic.value.DoubleValue
498.419

@<SCITEGIC>MOL_PROPERTY
E
SciTegic.value.DoubleValue
315.816

@<SCITEGIC>MOL_PROPERTY
-TS
SciTegic.value.DoubleValue
182.604

@<SCITEGIC>MOL_PROPERTY
U+W
SciTegic.value.DoubleValue
189.727

@<SCITEGIC>MOL_PROPERTY
U
SciTegic.value.DoubleValue
268.209

@<SCITEGIC>MOL_PROPERTY
W
SciTegic.value.DoubleValue
-78.482

@<SCITEGIC>MOL_PROPERTY
W(PB)
SciTegic.value.DoubleValue
-84.459

@<SCITEGIC>MOL_PROPERTY
W(SA)
SciTegic.value.DoubleValue
5.977

@<SCITEGIC>MOL_PROPERTY
Valence
SciTegic.value.DoubleValue
149.185

@<SCITEGIC>MOL_PROPERTY
Coulomb
SciTegic.value.DoubleValue
143.732

@<SCITEGIC>MOL_PROPERTY
VdW
SciTegic.value.DoubleValue
-24.708

@<SCITEGIC>MOL_PROPERTY
VdW6
SciTegic.value.DoubleValue
-183.570

@<SCITEGIC>MOL_PROPERTY
VdW12
SciTegic.value.DoubleValue
158.862

@<SCITEGIC>MOL_PROPERTY
Bond
SciTegic.value.DoubleValue
5.084

@<SCITEGIC>MOL_PROPERTY
Angle
SciTegic.value.DoubleValue
15.264

@<SCITEGIC>MOL_PROPERTY
Pdih
SciTegic.value.DoubleValue
128.815

@<SCITEGIC>MOL_PROPERTY
Idih
SciTegic.value.DoubleValue
0.022

@<SCITEGIC>MOL_PROPERTY
Tether
SciTegic.value.DoubleValue
0.000

@<TRIPOS>MOLECULE
CD_guest-s19_fast_vm2_rndm.mol2 : feprocess host+ligand conformer 27
         143         148           2
SMALL
USER_CHARGES
 
@<TRIPOS>ATOM
       1    C1      16.252980   15.160984   21.447104 C.3        1 MOL1         0.2972
       2    H1      15.181932   14.966672   21.308560 H          1 MOL1         0.0751
       3    O1      16.526561   16.567597   21.595914 O.3        1 MOL1        -0.3740
       4    C2      16.751835   14.453994   22.732080 C.3        1 MOL1         0.1003
       5    H2      16.569845   13.378240   22.610968 H          1 MOL1         0.0783
       6    O2      16.031735   14.930870   23.880241 O.3        1 MOL1        -0.5519
       7    H3      15.812722   15.881451   23.710098 H          1 MOL1         0.3769
       8    C3      18.272942   14.663893   22.920690 C.3        1 MOL1         0.1053
       9    H4      18.450956   15.727564   23.130110 H          1 MOL1         0.0783
      10    O3      18.734804   13.872015   24.020129 O.3        1 MOL1        -0.5519
      11    H5      18.081053   14.028351   24.737708 H          1 MOL1         0.3769
      12    C4      19.044107   14.283265   21.634100 C.3        1 MOL1         0.1018
      13    H6      19.015778   13.191645   21.520353 H          1 MOL1         0.0783
      14    C5      18.434782   14.946668   20.367733 C.3        1 MOL1         0.1043
      15    H7      18.582738   16.028541   20.445519 H          1 MOL1         0.0783
      16    O4      17.012327   14.666770   20.320562 O.3        1 MOL1        -0.3740
      17    C6      19.081512   14.511189   19.027477 C.3        1 MOL1         0.0138
      18    H8      19.929598   15.176476   18.820549 H          1 MOL1         0.0794
      19    H9      18.352602   14.664807   18.220681 H          1 MOL1         0.0794
      20    O5      19.533150   13.152328   19.030387 O.3        1 MOL1        -0.5486
      21    H10     20.406256   13.144329   19.486421 H          1 MOL1         0.3769
      22    C7      14.832793   20.304825   20.784301 C.3        1 MOL1         0.2972
      23    H11     14.136635   21.098539   20.486343 H          1 MOL1         0.0751
      24    O6      16.134952   20.828785   21.110537 O.3        1 MOL1        -0.3740
      25    C8      14.290455   19.564528   22.034164 C.3        1 MOL1         0.1003
      26    H12     13.313764   19.141125   21.766046 H          1 MOL1         0.0783
      27    O7      14.120722   20.469217   23.136952 O.3        1 MOL1        -0.5519
      28    H13     14.857421   21.130267   23.094416 H          1 MOL1         0.3769
      29    C9      15.221739   18.392824   22.427690 C.3        1 MOL1         0.1053
      30    H14     16.186016   18.807633   22.753830 H          1 MOL1         0.0783
      31    O8      14.625925   17.644862   23.493472 O.3        1 MOL1        -0.5519
      32    H15     14.315308   18.322244   24.134942 H          1 MOL1         0.3769
      33    C10     15.472833   17.468916   21.212813 C.3        1 MOL1         0.1018
      34    H16     14.538609   16.939794   20.983805 H          1 MOL1         0.0783
      35    C11     15.932347   18.273334   19.965492 C.3        1 MOL1         0.1043
      36    H17     16.916818   18.704691   20.180466 H          1 MOL1         0.0783
      37    O9      14.986166   19.343754   19.716357 O.3        1 MOL1        -0.3740
      38    C12     16.077568   17.433366   18.671074 C.3        1 MOL1         0.0138
      39    H18     17.060977   16.947963   18.677909 H          1 MOL1         0.0794
      40    H19     16.063054   18.114476   17.809893 H          1 MOL1         0.0794
      41    O10     15.059823   16.436325   18.528995 O.3        1 MOL1        -0.5486
      42    H20     15.384901   15.633755   18.994734 H          1 MOL1         0.3769
      43    C13     18.571613   24.163165   20.860136 C.3        1 MOL1         0.2972
      44    H21     19.034944   25.144032   20.693133 H          1 MOL1         0.0751
      45    O11     19.557246   23.161410   21.191517 O.3        1 MOL1        -0.3740
      46    C14     17.494589   24.229151   21.975680 C.3        1 MOL1         0.1003
      47    H22     16.697010   24.890346   21.612435 H          1 MOL1         0.0783
      48    O12     18.012333   24.769028   23.200168 O.3        1 MOL1        -0.5519
      49    H23     18.707051   24.140578   23.521644 H          1 MOL1         0.3769
      50    C15     16.878971   22.827009   22.203658 C.3        1 MOL1         0.1053
      51    H24     17.663374   22.160885   22.589733 H          1 MOL1         0.0783
      52    O13     15.812654   22.922125   23.153360 O.3        1 MOL1        -0.5519
      53    H25     16.162973   23.488507   23.876720 H          1 MOL1         0.3769
      54    C16     16.345037   22.234813   20.874672 C.3        1 MOL1         0.1018
      55    H26     15.413249   22.756427   20.621206 H          1 MOL1         0.0783
      56    C17     17.357572   22.378073   19.701036 C.3        1 MOL1         0.1043
      57    H27     18.184060   21.680313   19.871367 H          1 MOL1         0.0783
      58    O14     17.892110   23.726158   19.662255 O.3        1 MOL1        -0.3740
      59    C18     16.768658   22.034215   18.311126 C.3        1 MOL1         0.0138
      60    H28     16.644164   20.945112   18.242158 H          1 MOL1         0.0794
      61    H29     17.500694   22.323298   17.545445 H          1 MOL1         0.0794
      62    O15     15.516422   22.684541   18.061994 O.3        1 MOL1        -0.5486
      63    H30     14.806272   22.088846   18.382079 H          1 MOL1         0.3769
      64    C19     23.380548   22.434408   22.491524 C.3        1 MOL1         0.2972
      65    H31     24.402460   22.439711   22.889710 H          1 MOL1         0.0751
      66    O16     23.072115   21.186401   21.834641 O.3        1 MOL1        -0.3740
      67    C20     22.364635   22.655162   23.640103 C.3        1 MOL1         0.1003
      68    H32     22.532556   23.661704   24.044314 H          1 MOL1         0.0783
      69    O17     22.579044   21.691396   24.682645 O.3        1 MOL1        -0.5519
      70    H33     21.705554   21.485364   25.098069 H          1 MOL1         0.3769
      71    C21     20.920404   22.600463   23.085615 C.3        1 MOL1         0.1053
      72    H34     20.745433   21.589693   22.701112 H          1 MOL1         0.0783
      73    O18     19.975005   22.901556   24.121246 O.3        1 MOL1        -0.5519
      74    H35     19.909408   22.095462   24.699613 H          1 MOL1         0.3769
      75    C22     20.734902   23.591304   21.905418 C.3        1 MOL1         0.1018
      76    H36     20.627935   24.607022   22.308495 H          1 MOL1         0.0783
      77    C23     21.903091   23.542863   20.878392 C.3        1 MOL1         0.1043
      78    H37     21.778610   22.625622   20.294344 H          1 MOL1         0.0783
      79    O19     23.195657   23.502805   21.537249 O.3        1 MOL1        -0.3740
      80    C24     21.895501   24.721740   19.876301 C.3        1 MOL1         0.0138
      81    H38     21.040703   24.596536   19.197897 H          1 MOL1         0.0794
      82    H39     22.806454   24.669485   19.265056 H          1 MOL1         0.0794
      83    O20     21.810247   25.990564   20.536491 O.3        1 MOL1        -0.5486
      84    H40     21.889147   26.689526   19.850993 H          1 MOL1         0.3769
      85    C25     24.824613   17.710191   20.481450 C.3        1 MOL1         0.2972
      86    H41     25.407987   16.918679   19.993563 H          1 MOL1         0.0751
      87    O21     23.629371   17.193245   21.097703 O.3        1 MOL1        -0.3740
      88    C26     25.657103   18.433157   21.568421 C.3        1 MOL1         0.1003
      89    H42     26.518153   18.889814   21.063239 H          1 MOL1         0.0783
      90    O22     26.134066   17.509581   22.559975 O.3        1 MOL1        -0.5519
      91    H43     25.346656   17.018281   22.907495 H          1 MOL1         0.3769
      92    C27     24.840462   19.571157   22.234394 C.3        1 MOL1         0.1053
      93    H44     24.049383   19.114502   22.846254 H          1 MOL1         0.0783
      94    O23     25.727039   20.326585   23.066251 O.3        1 MOL1        -0.5519
      95    H45     26.192722   19.661049   23.618638 H          1 MOL1         0.3769
      96    C28     24.159990   20.499604   21.186399 C.3        1 MOL1         0.1018
      97    H46     24.906994   21.202313   20.796538 H          1 MOL1         0.0783
      98    C29     23.517208   19.712867   20.007688 C.3        1 MOL1         0.1043
      99    H47     22.618067   19.214932   20.389997 H          1 MOL1         0.0783
     100    O24     24.436576   18.709380   19.516690 O.3        1 MOL1        -0.3740
     101    C30     23.060975   20.589703   18.813394 C.3        1 MOL1         0.0138
     102    H48     22.046057   20.952293   19.016943 H          1 MOL1         0.0794
     103    H49     22.990541   19.953999   17.920755 H          1 MOL1         0.0794
     104    O25     23.933888   21.698278   18.559601 O.3        1 MOL1        -0.5486
     105    H50     23.907623   22.281185   19.349434 H          1 MOL1         0.3769
     106    C31     21.431275   13.793034   21.791251 C.3        1 MOL1         0.2972
     107    H51     21.040404   12.778712   21.942274 H          1 MOL1         0.0751
     108    O26     20.382653   14.779712   21.801085 O.3        1 MOL1        -0.3740
     109    C32     22.425414   14.146154   22.922019 C.3        1 MOL1         0.1003
     110    H52     23.260956   13.436426   22.864867 H          1 MOL1         0.0783
     111    O27     21.789320   14.030816   24.205073 O.3        1 MOL1        -0.5519
     112    H53     20.825984   14.211513   24.067845 H          1 MOL1         0.3769
     113    C33     22.991278   15.570617   22.723980 C.3        1 MOL1         0.1053
     114    H54     22.171210   16.283916   22.873812 H          1 MOL1         0.0783
     115    O28     24.019250   15.810720   23.690422 O.3        1 MOL1        -0.5519
     116    H55     23.635519   15.514160   24.545875 H          1 MOL1         0.3769
     117    C34     23.550833   15.770603   21.293116 C.3        1 MOL1         0.1018
     118    H56     24.535592   15.288742   21.230441 H          1 MOL1         0.0783
     119    C35     22.605913   15.217744   20.186744 C.3        1 MOL1         0.1043
     120    H57     21.748487   15.899216   20.110802 H          1 MOL1         0.0783
     121    O29     22.126419   13.891830   20.531606 O.3        1 MOL1        -0.3740
     122    C36     23.261193   15.154139   18.786624 C.3        1 MOL1         0.0138
     123    H58     23.388229   16.179898   18.414611 H          1 MOL1         0.0794
     124    H59     22.573618   14.641450   18.100634 H          1 MOL1         0.0794
     125    O30     24.528745   14.486224   18.813623 O.3        1 MOL1        -0.5486
     126    H60     24.848510   14.416029   17.887770 H          1 MOL1         0.3769
     127    C1      20.532305   19.396508   25.590545 C.2        1 MOL1         0.6173
     128    O1      20.118499   20.543523   25.609362 O.co2      1 MOL1        -0.6755
     129    O2      21.055802   18.865083   26.549726 O.co2      1 MOL1        -0.6755
     130    C2      20.494509   18.632515   24.314462 C.2        1 MOL1        -0.1504
     131    H1      21.009732   17.675766   24.317969 H          1 MOL1         0.0814
     132    C3      19.881267   19.079607   23.196217 C.2        1 MOL1        -0.1394
     133    H2      19.335899   20.021943   23.205342 H          1 MOL1         0.0817
     134    C4      19.897207   18.346812   21.874450 C.3        1 MOL1        -0.1849
     135    H3      19.078396   17.620765   21.855608 H          1 MOL1         0.0736
     136    H4      20.833272   17.784976   21.766625 H          1 MOL1         0.0736
     137    C5      19.750168   19.329946   20.697651 C.3        1 MOL1        -0.1866
     138    H5      18.774693   19.822056   20.772614 H          1 MOL1         0.0738
     139    H6      20.506839   20.120741   20.782593 H          1 MOL1         0.0738
     140    C6      19.882853   18.632621   19.328639 C.3        1 MOL1        -0.2879
     141    H7      19.102754   17.876540   19.195766 H          1 MOL1         0.0750
     142    H8      19.789083   19.362069   18.514134 H          1 MOL1         0.0750
     143    H9      20.856917   18.136921   19.231234 H          1 MOL1         0.0750
@<TRIPOS>BOND
    1     1     2    1
    2     1     3    1
    3     1     4    1
    4     4     5    1
    5     4     6    1
    6     6     7    1
    7     4     8    1
    8     8     9    1
    9     8    10    1
   10    10    11    1
   11     8    12    1
   12    12    13    1
   13    12    14    1
   14    14    15    1
   15     1    16    1
   16    14    16    1
   17    14    17    1
   18    17    18    1
   19    17    19    1
   20    17    20    1
   21    20    21    1
   22    22    23    1
   23    22    24    1
   24    22    25    1
   25    25    26    1
   26    25    27    1
   27    27    28    1
   28    25    29    1
   29    29    30    1
   30    29    31    1
   31    31    32    1
   32     3    33    1
   33    29    33    1
   34    33    34    1
   35    33    35    1
   36    35    36    1
   37    22    37    1
   38    35    37    1
   39    35    38    1
   40    38    39    1
   41    38    40    1
   42    38    41    1
   43    41    42    1
   44    43    44    1
   45    43    45    1
   46    43    46    1
   47    46    47    1
   48    46    48    1
   49    48    49    1
   50    46    50    1
   51    50    51    1
   52    50    52    1
   53    52    53    1
   54    24    54    1
   55    50    54    1
   56    54    55    1
   57    54    56    1
   58    56    57    1
   59    43    58    1
   60    56    58    1
   61    56    59    1
   62    59    60    1
   63    59    61    1
   64    59    62    1
   65    62    63    1
   66    64    65    1
   67    64    66    1
   68    64    67    1
   69    67    68    1
   70    67    69    1
   71    69    70    1
   72    67    71    1
   73    71    72    1
   74    71    73    1
   75    73    74    1
   76    45    75    1
   77    71    75    1
   78    75    76    1
   79    75    77    1
   80    77    78    1
   81    64    79    1
   82    77    79    1
   83    77    80    1
   84    80    81    1
   85    80    82    1
   86    80    83    1
   87    83    84    1
   88    85    86    1
   89    85    87    1
   90    85    88    1
   91    88    89    1
   92    88    90    1
   93    90    91    1
   94    88    92    1
   95    92    93    1
   96    92    94    1
   97    94    95    1
   98    66    96    1
   99    92    96    1
  100    96    97    1
  101    96    98    1
  102    98    99    1
  103    85   100    1
  104    98   100    1
  105    98   101    1
  106   101   102    1
  107   101   103    1
  108   101   104    1
  109   104   105    1
  110   106   107    1
  111    12   108    1
  112   106   108    1
  113   106   109    1
  114   109   110    1
  115   109   111    1
  116   111   112    1
  117   109   113    1
  118   113   114    1
  119   113   115    1
  120   115   116    1
  121    87   117    1
  122   113   117    1
  123   117   118    1
  124   117   119    1
  125   119   120    1
  126   106   121    1
  127   119   121    1
  128   119   122    1
  129   122   123    1
  130   122   124    1
  131   122   125    1
  132   125   126    1
  133   127   128    1
  134   127   129    2
  135   127   130    1
  136   130   131    1
  137   130   132    2
  138   132   133    1
  139   132   134    1
  140   134   135    1
  141   134   136    1
  142   134   137    1
  143   137   138    1
  144   137   139    1
  145   137   140    1
  146   140   141    1
  147   140   142    1
  148   140   143    1
@<TRIPOS>SUBSTRUCTURE
       1 MOL1            1 RESIDUE      1      MOL     
       2 MOL1          143 RESIDUE      1      MOL     
@<SCITEGIC>MOL_PROPERTY
feprocess Rank
SciTegic.value.IntegerValue
27

@<SCITEGIC>MOL_PROPERTY
Conf_Id
SciTegic.value.IntegerValue
218

@<SCITEGIC>MOL_PROPERTY
Probability
SciTegic.value.DoubleValue
0.14

@<SCITEGIC>MOL_PROPERTY
G
SciTegic.value.DoubleValue
498.531

@<SCITEGIC>MOL_PROPERTY
E
SciTegic.value.DoubleValue
317.501

@<SCITEGIC>MOL_PROPERTY
-TS
SciTegic.value.DoubleValue
181.030

@<SCITEGIC>MOL_PROPERTY
U+W
SciTegic.value.DoubleValue
191.412

@<SCITEGIC>MOL_PROPERTY
U
SciTegic.value.DoubleValue
272.020

@<SCITEGIC>MOL_PROPERTY
W
SciTegic.value.DoubleValue
-80.608

@<SCITEGIC>MOL_PROPERTY
W(PB)
SciTegic.value.DoubleValue
-86.649

@<SCITEGIC>MOL_PROPERTY
W(SA)
SciTegic.value.DoubleValue
6.041

@<SCITEGIC>MOL_PROPERTY
Valence
SciTegic.value.DoubleValue
149.737

@<SCITEGIC>MOL_PROPERTY
Coulomb
SciTegic.value.DoubleValue
146.086

@<SCITEGIC>MOL_PROPERTY
VdW
SciTegic.value.DoubleValue
-23.803

@<SCITEGIC>MOL_PROPERTY
VdW6
SciTegic.value.DoubleValue
-177.153

@<SCITEGIC>MOL_PROPERTY
VdW12
SciTegic.value.DoubleValue
153.351

@<SCITEGIC>MOL_PROPERTY
Bond
SciTegic.value.DoubleValue
4.778

@<SCITEGIC>MOL_PROPERTY
Angle
SciTegic.value.DoubleValue
13.988

@<SCITEGIC>MOL_PROPERTY
Pdih
SciTegic.value.DoubleValue
130.955

@<SCITEGIC>MOL_PROPERTY
Idih
SciTegic.value.DoubleValue
0.015

@<SCITEGIC>MOL_PROPERTY
Tether
SciTegic.value.DoubleValue
0.000

@<TRIPOS>MOLECULE
CD_guest-s19_fast_vm2_rndm.mol2 : feprocess host+ligand conformer 28
         143         148           2
SMALL
USER_CHARGES
 
@<TRIPOS>ATOM
       1    C1      16.165525   15.260372   20.524688 C.3        1 MOL1         0.2972
       2    H1      15.108426   15.171007   20.243514 H          1 MOL1         0.0751
       3    O1      16.473283   16.586408   20.996682 O.3        1 MOL1        -0.3740
       4    C2      16.554599   14.210263   21.601767 C.3        1 MOL1         0.1003
       5    H2      16.399224   13.221006   21.152025 H          1 MOL1         0.0783
       6    O2      15.735276   14.312783   22.775864 O.3        1 MOL1        -0.5519
       7    H3      15.925911   15.195685   23.182540 H          1 MOL1         0.3769
       8    C3      18.055236   14.329661   21.968019 C.3        1 MOL1         0.1053
       9    H4      18.214360   15.294577   22.469502 H          1 MOL1         0.0783
      10    O3      18.416959   13.256832   22.844369 O.3        1 MOL1        -0.5519
      11    H5      17.733456   13.259526   23.550001 H          1 MOL1         0.3769
      12    C4      18.944871   14.289125   20.700152 C.3        1 MOL1         0.1018
      13    H6      18.970294   13.257853   20.325673 H          1 MOL1         0.0783
      14    C5      18.426989   15.237623   19.585127 C.3        1 MOL1         0.1043
      15    H7      18.587818   16.270570   19.919538 H          1 MOL1         0.0783
      16    O4      17.007937   15.016596   19.376180 O.3        1 MOL1        -0.3740
      17    C6      19.160756   15.083978   18.229500 C.3        1 MOL1         0.0138
      18    H8      20.140707   15.572852   18.303730 H          1 MOL1         0.0794
      19    H9      18.589283   15.624086   17.463045 H          1 MOL1         0.0794
      20    O5      19.336229   13.716440   17.841160 O.3        1 MOL1        -0.5486
      21    H10     20.165045   13.400396   18.261023 H          1 MOL1         0.3769
      22    C7      15.130547   20.165412   22.425156 C.3        1 MOL1         0.2972
      23    H11     14.605075   21.030374   22.849269 H          1 MOL1         0.0751
      24    O6      16.390674   20.554172   21.837649 O.3        1 MOL1        -0.3740
      25    C8      15.382597   19.111580   23.531636 C.3        1 MOL1         0.1003
      26    H12     14.401442   18.754988   23.870426 H          1 MOL1         0.0783
      27    O7      16.071344   19.699208   24.648504 O.3        1 MOL1        -0.5519
      28    H13     16.968353   19.280091   24.712938 H          1 MOL1         0.3769
      29    C9      16.150885   17.903203   22.948163 C.3        1 MOL1         0.1053
      30    H14     17.132083   18.259985   22.617150 H          1 MOL1         0.0783
      31    O8      16.312998   16.884542   23.944203 O.3        1 MOL1        -0.5519
      32    H15     17.100416   17.155082   24.484639 H          1 MOL1         0.3769
      33    C10     15.448717   17.319248   21.697906 C.3        1 MOL1         0.1018
      34    H16     14.614273   16.679800   22.014381 H          1 MOL1         0.0783
      35    C11     14.956323   18.416069   20.710206 C.3        1 MOL1         0.1043
      36    H17     15.842292   18.783118   20.183747 H          1 MOL1         0.0783
      37    O9      14.333254   19.532782   21.399214 O.3        1 MOL1        -0.3740
      38    C12     13.977096   17.886881   19.635720 C.3        1 MOL1         0.0138
      39    H18     14.533768   17.237838   18.946283 H          1 MOL1         0.0794
      40    H19     13.602520   18.737445   19.050505 H          1 MOL1         0.0794
      41    O10     12.885825   17.160542   20.213506 O.3        1 MOL1        -0.5486
      42    H20     12.268171   16.922213   19.487955 H          1 MOL1         0.3769
      43    C13     18.462783   23.876644   20.503039 C.3        1 MOL1         0.2972
      44    H21     18.805307   24.809284   20.036483 H          1 MOL1         0.0751
      45    O11     19.562131   23.092538   21.007570 O.3        1 MOL1        -0.3740
      46    C14     17.505280   24.168941   21.682975 C.3        1 MOL1         0.1003
      47    H22     16.641194   24.708053   21.273242 H          1 MOL1         0.0783
      48    O12     18.142112   24.990552   22.674891 O.3        1 MOL1        -0.5519
      49    H23     19.032795   24.596841   22.858965 H          1 MOL1         0.3769
      50    C15     16.985791   22.853577   22.317162 C.3        1 MOL1         0.1053
      51    H24     17.824583   22.363400   22.830944 H          1 MOL1         0.0783
      52    O13     15.960539   23.183995   23.259389 O.3        1 MOL1        -0.5519
      53    H25     16.345392   23.891819   23.821510 H          1 MOL1         0.3769
      54    C16     16.433870   21.869338   21.247541 C.3        1 MOL1         0.1018
      55    H26     15.435655   22.210723   20.945401 H          1 MOL1         0.0783
      56    C17     17.344960   21.763615   19.989733 C.3        1 MOL1         0.1043
      57    H27     18.244837   21.201773   20.268584 H          1 MOL1         0.0783
      58    O14     17.730507   23.085277   19.546233 O.3        1 MOL1        -0.3740
      59    C18     16.704138   21.026024   18.784172 C.3        1 MOL1         0.0138
      60    H28     16.944039   19.959599   18.858220 H          1 MOL1         0.0794
      61    H29     17.181155   21.384502   17.862209 H          1 MOL1         0.0794
      62    O15     15.283268   21.200478   18.699001 O.3        1 MOL1        -0.5486
      63    H30     14.886903   20.800044   19.505006 H          1 MOL1         0.3769
      64    C19     23.675013   22.855033   21.130084 C.3        1 MOL1         0.2972
      65    H31     24.762799   22.993485   21.082178 H          1 MOL1         0.0751
      66    O16     23.324914   21.463252   21.292404 O.3        1 MOL1        -0.3740
      67    C20     23.049035   23.692402   22.276175 C.3        1 MOL1         0.1003
      68    H32     23.201272   24.749417   22.021339 H          1 MOL1         0.0783
      69    O17     23.673187   23.435253   23.541874 O.3        1 MOL1        -0.5519
      70    H33     23.506584   22.483222   23.757001 H          1 MOL1         0.3769
      71    C21     21.523768   23.437981   22.342685 C.3        1 MOL1         0.1053
      72    H34     21.356249   22.384206   22.606792 H          1 MOL1         0.0783
      73    O18     20.940922   24.286710   23.337503 O.3        1 MOL1        -0.5519
      74    H35     21.541234   24.221196   24.113423 H          1 MOL1         0.3769
      75    C22     20.861961   23.711539   20.968400 C.3        1 MOL1         0.1018
      76    H36     20.793651   24.799519   20.836974 H          1 MOL1         0.0783
      77    C23     21.641970   23.083135   19.775789 C.3        1 MOL1         0.1043
      78    H37     21.466693   22.000666   19.783009 H          1 MOL1         0.0783
      79    O19     23.066323   23.324540   19.908522 O.3        1 MOL1        -0.3740
      80    C24     21.182735   23.611112   18.395490 C.3        1 MOL1         0.0138
      81    H38     20.177644   23.219797   18.189052 H          1 MOL1         0.0794
      82    H39     21.853772   23.207313   17.625618 H          1 MOL1         0.0794
      83    O20     21.165231   25.043486   18.342155 O.3        1 MOL1        -0.5486
      84    H40     20.929080   25.304224   17.425311 H          1 MOL1         0.3769
      85    C25     24.715618   17.733900   22.415265 C.3        1 MOL1         0.2972
      86    H41     25.279494   16.867312   22.783614 H          1 MOL1         0.0751
      87    O21     23.550602   17.332996   21.665102 O.3        1 MOL1        -0.3740
      88    C26     24.275406   18.633280   23.597917 C.3        1 MOL1         0.1003
      89    H42     25.189742   19.003264   24.079895 H          1 MOL1         0.0783
      90    O22     23.501852   17.908542   24.566463 O.3        1 MOL1        -0.5519
      91    H43     23.383734   16.991647   24.218462 H          1 MOL1         0.3769
      92    C27     23.481522   19.855481   23.086636 C.3        1 MOL1         0.1053
      93    H44     22.544466   19.491998   22.650686 H          1 MOL1         0.0783
      94    O23     23.192732   20.706437   24.198720 O.3        1 MOL1        -0.5519
      95    H45     22.859051   20.092294   24.891820 H          1 MOL1         0.3769
      96    C28     24.267674   20.622839   21.990365 C.3        1 MOL1         0.1018
      97    H46     25.061021   21.208387   22.473484 H          1 MOL1         0.0783
      98    C29     24.885976   19.672662   20.922931 C.3        1 MOL1         0.1043
      99    H47     24.070890   19.301249   20.288652 H          1 MOL1         0.0783
     100    O24     25.543233   18.541530   21.551763 O.3        1 MOL1        -0.3740
     101    C30     25.901955   20.375924   19.991489 C.3        1 MOL1         0.0138
     102    H48     25.352515   21.064436   19.335134 H          1 MOL1         0.0794
     103    H49     26.371728   19.618424   19.349911 H          1 MOL1         0.0794
     104    O25     26.900033   21.097210   20.725013 O.3        1 MOL1        -0.5486
     105    H50     27.547453   21.451859   20.077194 H          1 MOL1         0.3769
     106    C31     21.360136   13.876527   20.871171 C.3        1 MOL1         0.2972
     107    H51     21.033768   12.866147   20.594824 H          1 MOL1         0.0751
     108    O26     20.245580   14.758736   21.095257 O.3        1 MOL1        -0.3740
     109    C32     22.188029   13.828832   22.178367 C.3        1 MOL1         0.1003
     110    H52     23.068474   13.202065   21.985898 H          1 MOL1         0.0783
     111    O27     21.422710   13.248118   23.245467 O.3        1 MOL1        -0.5519
     112    H53     20.496861   13.588183   23.154271 H          1 MOL1         0.3769
     113    C33     22.686126   15.240154   22.573763 C.3        1 MOL1         0.1053
     114    H54     21.814037   15.848989   22.850609 H          1 MOL1         0.0783
     115    O28     23.565751   15.111948   23.695035 O.3        1 MOL1        -0.5519
     116    H55     23.110605   14.479987   24.297240 H          1 MOL1         0.3769
     117    C34     23.412376   15.926148   21.383920 C.3        1 MOL1         0.1018
     118    H56     24.390827   15.450295   21.240211 H          1 MOL1         0.0783
     119    C35     22.601040   15.820460   20.062070 C.3        1 MOL1         0.1043
     120    H57     21.708177   16.446646   20.157965 H          1 MOL1         0.0783
     121    O29     22.190887   14.447740   19.836653 O.3        1 MOL1        -0.3740
     122    C36     23.362867   16.334530   18.815537 C.3        1 MOL1         0.0138
     123    H58     23.357028   17.432712   18.834750 H          1 MOL1         0.0794
     124    H59     22.812176   16.025301   17.917345 H          1 MOL1         0.0794
     125    O30     24.713539   15.860864   18.753937 O.3        1 MOL1        -0.5486
     126    H60     25.223195   16.342245   19.441129 H          1 MOL1         0.3769
     127    C1      19.310969   17.963731   24.066308 C.2        1 MOL1         0.6173
     128    O1      19.618827   16.788686   24.023311 O.co2      1 MOL1        -0.6755
     129    O2      18.582476   18.420939   24.927929 O.co2      1 MOL1        -0.6755
     130    C2      19.655596   18.859380   22.928642 C.2        1 MOL1        -0.1504
     131    H1      19.352800   19.898997   23.030287 H          1 MOL1         0.0814
     132    C3      20.264444   18.428499   21.802618 C.2        1 MOL1        -0.1394
     133    H2      20.539132   17.383116   21.699029 H          1 MOL1         0.0817
     134    C4      20.592762   19.317991   20.624673 C.3        1 MOL1        -0.1849
     135    H3      21.675099   19.313292   20.448160 H          1 MOL1         0.0736
     136    H4      20.317322   20.354226   20.855302 H          1 MOL1         0.0736
     137    C5      19.865361   18.852855   19.349025 C.3        1 MOL1        -0.1866
     138    H5      20.201980   17.843939   19.083959 H          1 MOL1         0.0738
     139    H6      18.787628   18.786196   19.546207 H          1 MOL1         0.0738
     140    C6      20.126613   19.801059   18.162387 C.3        1 MOL1        -0.2879
     141    H7      21.199489   19.860179   17.937829 H          1 MOL1         0.0750
     142    H8      19.609852   19.445042   17.262027 H          1 MOL1         0.0750
     143    H9      19.766836   20.813314   18.381513 H          1 MOL1         0.0750
@<TRIPOS>BOND
    1     1     2    1
    2     1     3    1
    3     1     4    1
    4     4     5    1
    5     4     6    1
    6     6     7    1
    7     4     8    1
    8     8     9    1
    9     8    10    1
   10    10    11    1
   11     8    12    1
   12    12    13    1
   13    12    14    1
   14    14    15    1
   15     1    16    1
   16    14    16    1
   17    14    17    1
   18    17    18    1
   19    17    19    1
   20    17    20    1
   21    20    21    1
   22    22    23    1
   23    22    24    1
   24    22    25    1
   25    25    26    1
   26    25    27    1
   27    27    28    1
   28    25    29    1
   29    29    30    1
   30    29    31    1
   31    31    32    1
   32     3    33    1
   33    29    33    1
   34    33    34    1
   35    33    35    1
   36    35    36    1
   37    22    37    1
   38    35    37    1
   39    35    38    1
   40    38    39    1
   41    38    40    1
   42    38    41    1
   43    41    42    1
   44    43    44    1
   45    43    45    1
   46    43    46    1
   47    46    47    1
   48    46    48    1
   49    48    49    1
   50    46    50    1
   51    50    51    1
   52    50    52    1
   53    52    53    1
   54    24    54    1
   55    50    54    1
   56    54    55    1
   57    54    56    1
   58    56    57    1
   59    43    58    1
   60    56    58    1
   61    56    59    1
   62    59    60    1
   63    59    61    1
   64    59    62    1
   65    62    63    1
   66    64    65    1
   67    64    66    1
   68    64    67    1
   69    67    68    1
   70    67    69    1
   71    69    70    1
   72    67    71    1
   73    71    72    1
   74    71    73    1
   75    73    74    1
   76    45    75    1
   77    71    75    1
   78    75    76    1
   79    75    77    1
   80    77    78    1
   81    64    79    1
   82    77    79    1
   83    77    80    1
   84    80    81    1
   85    80    82    1
   86    80    83    1
   87    83    84    1
   88    85    86    1
   89    85    87    1
   90    85    88    1
   91    88    89    1
   92    88    90    1
   93    90    91    1
   94    88    92    1
   95    92    93    1
   96    92    94    1
   97    94    95    1
   98    66    96    1
   99    92    96    1
  100    96    97    1
  101    96    98    1
  102    98    99    1
  103    85   100    1
  104    98   100    1
  105    98   101    1
  106   101   102    1
  107   101   103    1
  108   101   104    1
  109   104   105    1
  110   106   107    1
  111    12   108    1
  112   106   108    1
  113   106   109    1
  114   109   110    1
  115   109   111    1
  116   111   112    1
  117   109   113    1
  118   113   114    1
  119   113   115    1
  120   115   116    1
  121    87   117    1
  122   113   117    1
  123   117   118    1
  124   117   119    1
  125   119   120    1
  126   106   121    1
  127   119   121    1
  128   119   122    1
  129   122   123    1
  130   122   124    1
  131   122   125    1
  132   125   126    1
  133   127   128    1
  134   127   129    2
  135   127   130    1
  136   130   131    1
  137   130   132    2
  138   132   133    1
  139   132   134    1
  140   134   135    1
  141   134   136    1
  142   134   137    1
  143   137   138    1
  144   137   139    1
  145   137   140    1
  146   140   141    1
  147   140   142    1
  148   140   143    1
@<TRIPOS>SUBSTRUCTURE
       1 MOL1            1 RESIDUE      1      MOL     
       2 MOL1          143 RESIDUE      1      MOL     
@<SCITEGIC>MOL_PROPERTY
feprocess Rank
SciTegic.value.IntegerValue
28

@<SCITEGIC>MOL_PROPERTY
Conf_Id
SciTegic.value.IntegerValue
826

@<SCITEGIC>MOL_PROPERTY
Probability
SciTegic.value.DoubleValue
0.12

@<SCITEGIC>MOL_PROPERTY
G
SciTegic.value.DoubleValue
498.617

@<SCITEGIC>MOL_PROPERTY
E
SciTegic.value.DoubleValue
316.564

@<SCITEGIC>MOL_PROPERTY
-TS
SciTegic.value.DoubleValue
182.053

@<SCITEGIC>MOL_PROPERTY
U+W
SciTegic.value.DoubleValue
190.476

@<SCITEGIC>MOL_PROPERTY
U
SciTegic.value.DoubleValue
264.207

@<SCITEGIC>MOL_PROPERTY
W
SciTegic.value.DoubleValue
-73.731

@<SCITEGIC>MOL_PROPERTY
W(PB)
SciTegic.value.DoubleValue
-79.691

@<SCITEGIC>MOL_PROPERTY
W(SA)
SciTegic.value.DoubleValue
5.959

@<SCITEGIC>MOL_PROPERTY
Valence
SciTegic.value.DoubleValue
148.408

@<SCITEGIC>MOL_PROPERTY
Coulomb
SciTegic.value.DoubleValue
141.044

@<SCITEGIC>MOL_PROPERTY
VdW
SciTegic.value.DoubleValue
-25.245

@<SCITEGIC>MOL_PROPERTY
VdW6
SciTegic.value.DoubleValue
-182.301

@<SCITEGIC>MOL_PROPERTY
VdW12
SciTegic.value.DoubleValue
157.056

@<SCITEGIC>MOL_PROPERTY
Bond
SciTegic.value.DoubleValue
4.879

@<SCITEGIC>MOL_PROPERTY
Angle
SciTegic.value.DoubleValue
14.852

@<SCITEGIC>MOL_PROPERTY
Pdih
SciTegic.value.DoubleValue
128.614

@<SCITEGIC>MOL_PROPERTY
Idih
SciTegic.value.DoubleValue
0.062

@<SCITEGIC>MOL_PROPERTY
Tether
SciTegic.value.DoubleValue
0.000

@<TRIPOS>MOLECULE
CD_guest-s19_fast_vm2_rndm.mol2 : feprocess host+ligand conformer 29
         143         148           2
SMALL
USER_CHARGES
 
@<TRIPOS>ATOM
       1    C1      16.322786   15.310392   21.437576 C.3        1 MOL1         0.2972
       2    H1      15.260729   15.088250   21.271938 H          1 MOL1         0.0751
       3    O1      16.540610   16.719142   21.624666 O.3        1 MOL1        -0.3740
       4    C2      16.815390   14.573057   22.710384 C.3        1 MOL1         0.1003
       5    H2      16.625120   13.502191   22.562066 H          1 MOL1         0.0783
       6    O2      16.092727   15.022762   23.867222 O.3        1 MOL1        -0.5519
       7    H3      15.728691   15.916033   23.648090 H          1 MOL1         0.3769
       8    C3      18.337022   14.759228   22.918269 C.3        1 MOL1         0.1053
       9    H4      18.529768   15.816078   23.151073 H          1 MOL1         0.0783
      10    O3      18.775898   13.931175   24.001064 O.3        1 MOL1        -0.5519
      11    H5      18.120065   14.085979   24.717022 H          1 MOL1         0.3769
      12    C4      19.104495   14.394073   21.626918 C.3        1 MOL1         0.1018
      13    H6      18.999602   13.315436   21.450531 H          1 MOL1         0.0783
      14    C5      18.538893   15.170554   20.407592 C.3        1 MOL1         0.1043
      15    H7      18.694660   16.242163   20.587052 H          1 MOL1         0.0783
      16    O4      17.117665   14.894586   20.303788 O.3        1 MOL1        -0.3740
      17    C6      19.203578   14.836517   19.047917 C.3        1 MOL1         0.0138
      18    H8      20.096120   15.464137   18.933504 H          1 MOL1         0.0794
      19    H9      18.512336   15.117430   18.242124 H          1 MOL1         0.0794
      20    O5      19.569021   13.457985   18.922952 O.3        1 MOL1        -0.5486
      21    H10     20.451272   13.360540   19.350341 H          1 MOL1         0.3769
      22    C7      14.643402   20.389186   20.864435 C.3        1 MOL1         0.2972
      23    H11     13.932794   21.138167   20.492087 H          1 MOL1         0.0751
      24    O6      15.756459   21.016769   21.537165 O.3        1 MOL1        -0.3740
      25    C8      13.935340   19.439656   21.869641 C.3        1 MOL1         0.1003
      26    H12     13.100820   18.968174   21.335204 H          1 MOL1         0.0783
      27    O7      13.410820   20.172740   22.989245 O.3        1 MOL1        -0.5519
      28    H13     14.167826   20.389116   23.595312 H          1 MOL1         0.3769
      29    C9      14.900554   18.317105   22.327421 C.3        1 MOL1         0.1053
      30    H14     15.737756   18.790350   22.846349 H          1 MOL1         0.0783
      31    O8      14.240590   17.385702   23.195462 O.3        1 MOL1        -0.5519
      32    H15     14.145352   17.850448   24.067587 H          1 MOL1         0.3769
      33    C10     15.510262   17.584918   21.113625 C.3        1 MOL1         0.1018
      34    H16     14.718321   17.029952   20.593586 H          1 MOL1         0.0783
      35    C11     16.156135   18.602678   20.137793 C.3        1 MOL1         0.1043
      36    H17     16.982796   19.107447   20.653752 H          1 MOL1         0.0783
      37    O9      15.150891   19.579099   19.777403 O.3        1 MOL1        -0.3740
      38    C12     16.739149   17.984696   18.841761 C.3        1 MOL1         0.0138
      39    H18     17.769753   17.666699   19.043032 H          1 MOL1         0.0794
      40    H19     16.792463   18.768325   18.074466 H          1 MOL1         0.0794
      41    O10     15.979982   16.871408   18.356331 O.3        1 MOL1        -0.5486
      42    H20     16.202476   16.100982   18.929502 H          1 MOL1         0.3769
      43    C13     18.370971   24.166615   20.930896 C.3        1 MOL1         0.2972
      44    H21     18.880605   25.113502   20.711991 H          1 MOL1         0.0751
      45    O11     19.318696   23.085938   21.086434 O.3        1 MOL1        -0.3740
      46    C14     17.479889   24.298750   22.191410 C.3        1 MOL1         0.1003
      47    H22     16.700710   25.036767   21.961546 H          1 MOL1         0.0783
      48    O12     18.239414   24.769901   23.315053 O.3        1 MOL1        -0.5519
      49    H23     18.817594   24.018497   23.597783 H          1 MOL1         0.3769
      50    C15     16.778272   22.948941   22.488004 C.3        1 MOL1         0.1053
      51    H24     17.556047   22.221216   22.748915 H          1 MOL1         0.0783
      52    O13     15.862511   23.102118   23.580855 O.3        1 MOL1        -0.5519
      53    H25     15.724478   22.202134   23.979781 H          1 MOL1         0.3769
      54    C16     16.011919   22.411245   21.246439 C.3        1 MOL1         0.1018
      55    H26     15.071992   22.972698   21.169271 H          1 MOL1         0.0783
      56    C17     16.824030   22.547051   19.913729 C.3        1 MOL1         0.1043
      57    H27     17.580565   21.751523   19.889112 H          1 MOL1         0.0783
      58    O14     17.488712   23.833370   19.845960 O.3        1 MOL1        -0.3740
      59    C18     15.982230   22.447943   18.614583 C.3        1 MOL1         0.0138
      60    H28     15.772925   21.397739   18.389411 H          1 MOL1         0.0794
      61    H29     16.590911   22.824572   17.781465 H          1 MOL1         0.0794
      62    O15     14.757388   23.188015   18.697185 O.3        1 MOL1        -0.5486
      63    H30     14.316248   23.130908   17.821669 H          1 MOL1         0.3769
      64    C19     23.354179   22.428414   21.980620 C.3        1 MOL1         0.2972
      65    H31     24.397155   22.561561   22.294047 H          1 MOL1         0.0751
      66    O16     23.155483   21.156123   21.333397 O.3        1 MOL1        -0.3740
      67    C20     22.407234   22.529481   23.206079 C.3        1 MOL1         0.1003
      68    H32     22.565305   23.520341   23.651416 H          1 MOL1         0.0783
      69    O17     22.698779   21.523212   24.189723 O.3        1 MOL1        -0.5519
      70    H33     23.623709   21.219907   24.027183 H          1 MOL1         0.3769
      71    C21     20.926230   22.430522   22.773949 C.3        1 MOL1         0.1053
      72    H34     20.751981   21.419143   22.386642 H          1 MOL1         0.0783
      73    O18     20.101399   22.666428   23.918643 O.3        1 MOL1        -0.5519
      74    H35     20.455940   22.057125   24.603979 H          1 MOL1         0.3769
      75    C22     20.601533   23.443562   21.647824 C.3        1 MOL1         0.1018
      76    H36     20.591744   24.452845   22.080393 H          1 MOL1         0.0783
      77    C23     21.646842   23.383107   20.499463 C.3        1 MOL1         0.1043
      78    H37     21.525508   22.425329   19.976442 H          1 MOL1         0.0783
      79    O19     22.988186   23.464030   21.044280 O.3        1 MOL1        -0.3740
      80    C24     21.480076   24.509107   19.450658 C.3        1 MOL1         0.0138
      81    H38     20.566879   24.313719   18.872290 H          1 MOL1         0.0794
      82    H39     22.325264   24.463362   18.750896 H          1 MOL1         0.0794
      83    O20     21.403485   25.806365   20.055728 O.3        1 MOL1        -0.5486
      84    H40     21.382951   26.471170   19.333130 H          1 MOL1         0.3769
      85    C25     25.180257   17.536712   20.980764 C.3        1 MOL1         0.2972
      86    H41     25.893816   16.730702   20.769687 H          1 MOL1         0.0751
      87    O21     23.901149   17.031662   21.404395 O.3        1 MOL1        -0.3740
      88    C26     25.710939   18.448078   22.112902 C.3        1 MOL1         0.1003
      89    H42     26.649997   18.895454   21.761775 H          1 MOL1         0.0783
      90    O22     25.968271   17.688025   23.304734 O.3        1 MOL1        -0.5519
      91    H43     25.238727   17.023955   23.394727 H          1 MOL1         0.3769
      92    C27     24.715043   19.597494   22.406786 C.3        1 MOL1         0.1053
      93    H44     23.800184   19.159594   22.829197 H          1 MOL1         0.0783
      94    O23     25.316552   20.478553   23.362114 O.3        1 MOL1        -0.5519
      95    H45     25.764668   19.881579   24.004443 H          1 MOL1         0.3769
      96    C28     24.335051   20.357884   21.103028 C.3        1 MOL1         0.1018
      97    H46     25.182530   20.983114   20.794677 H          1 MOL1         0.0783
      98    C29     23.969527   19.389671   19.943149 C.3        1 MOL1         0.1043
      99    H47     23.007266   18.919412   20.181389 H          1 MOL1         0.0783
     100    O24     24.980256   18.359340   19.812391 O.3        1 MOL1        -0.3740
     101    C30     23.794368   20.095087   18.575463 C.3        1 MOL1         0.0138
     102    H48     22.849742   20.655261   18.591216 H          1 MOL1         0.0794
     103    H49     23.701867   19.326772   17.796517 H          1 MOL1         0.0794
     104    O25     24.875982   20.982284   18.265476 O.3        1 MOL1        -0.5486
     105    H50     24.782461   21.771377   18.841512 H          1 MOL1         0.3769
     106    C31     21.457573   13.736923   21.665811 C.3        1 MOL1         0.2972
     107    H51     21.002226   12.738587   21.681792 H          1 MOL1         0.0751
     108    O26     20.475235   14.777066   21.836490 O.3        1 MOL1        -0.3740
     109    C32     22.486661   13.859804   22.814333 C.3        1 MOL1         0.1003
     110    H52     23.262204   13.100671   22.649096 H          1 MOL1         0.0783
     111    O27     21.851524   13.625352   24.081483 O.3        1 MOL1        -0.5519
     112    H53     20.920863   13.954216   24.002400 H          1 MOL1         0.3769
     113    C33     23.163626   15.249500   22.797548 C.3        1 MOL1         0.1053
     114    H54     22.407607   15.994635   23.074909 H          1 MOL1         0.0783
     115    O28     24.228377   15.276129   23.753393 O.3        1 MOL1        -0.5519
     116    H55     23.847635   14.878518   24.568193 H          1 MOL1         0.3769
     117    C34     23.710016   15.606905   21.391968 C.3        1 MOL1         0.1018
     118    H56     24.647216   15.058848   21.231668 H          1 MOL1         0.0783
     119    C35     22.703143   15.292561   20.249395 C.3        1 MOL1         0.1043
     120    H57     21.894853   16.033052   20.305012 H          1 MOL1         0.0783
     121    O29     22.143069   13.965249   20.417778 O.3        1 MOL1        -0.3740
     122    C36     23.308473   15.391821   18.827803 C.3        1 MOL1         0.0138
     123    H58     23.508682   16.447452   18.600611 H          1 MOL1         0.0794
     124    H59     22.555998   15.044638   18.107412 H          1 MOL1         0.0794
     125    O30     24.509784   14.624234   18.684255 O.3        1 MOL1        -0.5486
     126    H60     25.251611   15.160789   19.033484 H          1 MOL1         0.3769
     127    C1      15.743676   19.501379   25.293692 C.2        1 MOL1         0.6173
     128    O1      14.890898   18.728054   25.684726 O.co2      1 MOL1        -0.6755
     129    O2      15.480185   20.632315   24.923804 O.co2      1 MOL1        -0.6755
     130    C2      17.087462   18.934073   24.993347 C.2        1 MOL1        -0.1504
     131    H1      17.210510   17.870110   25.182000 H          1 MOL1         0.0814
     132    C3      18.084617   19.651976   24.430409 C.2        1 MOL1        -0.1394
     133    H2      17.955599   20.712814   24.231240 H          1 MOL1         0.0817
     134    C4      19.392139   19.063579   23.951798 C.3        1 MOL1        -0.1849
     135    H3      19.576398   18.088983   24.423253 H          1 MOL1         0.0736
     136    H4      20.224356   19.718422   24.240873 H          1 MOL1         0.0736
     137    C5      19.356277   18.905698   22.417659 C.3        1 MOL1        -0.1866
     138    H5      18.557812   18.205999   22.149547 H          1 MOL1         0.0738
     139    H6      19.104035   19.868179   21.951902 H          1 MOL1         0.0738
     140    C6      20.691508   18.392866   21.852250 C.3        1 MOL1        -0.2879
     141    H7      21.511681   19.071151   22.115801 H          1 MOL1         0.0750
     142    H8      20.922771   17.403007   22.257974 H          1 MOL1         0.0750
     143    H9      20.646616   18.313326   20.759302 H          1 MOL1         0.0750
@<TRIPOS>BOND
    1     1     2    1
    2     1     3    1
    3     1     4    1
    4     4     5    1
    5     4     6    1
    6     6     7    1
    7     4     8    1
    8     8     9    1
    9     8    10    1
   10    10    11    1
   11     8    12    1
   12    12    13    1
   13    12    14    1
   14    14    15    1
   15     1    16    1
   16    14    16    1
   17    14    17    1
   18    17    18    1
   19    17    19    1
   20    17    20    1
   21    20    21    1
   22    22    23    1
   23    22    24    1
   24    22    25    1
   25    25    26    1
   26    25    27    1
   27    27    28    1
   28    25    29    1
   29    29    30    1
   30    29    31    1
   31    31    32    1
   32     3    33    1
   33    29    33    1
   34    33    34    1
   35    33    35    1
   36    35    36    1
   37    22    37    1
   38    35    37    1
   39    35    38    1
   40    38    39    1
   41    38    40    1
   42    38    41    1
   43    41    42    1
   44    43    44    1
   45    43    45    1
   46    43    46    1
   47    46    47    1
   48    46    48    1
   49    48    49    1
   50    46    50    1
   51    50    51    1
   52    50    52    1
   53    52    53    1
   54    24    54    1
   55    50    54    1
   56    54    55    1
   57    54    56    1
   58    56    57    1
   59    43    58    1
   60    56    58    1
   61    56    59    1
   62    59    60    1
   63    59    61    1
   64    59    62    1
   65    62    63    1
   66    64    65    1
   67    64    66    1
   68    64    67    1
   69    67    68    1
   70    67    69    1
   71    69    70    1
   72    67    71    1
   73    71    72    1
   74    71    73    1
   75    73    74    1
   76    45    75    1
   77    71    75    1
   78    75    76    1
   79    75    77    1
   80    77    78    1
   81    64    79    1
   82    77    79    1
   83    77    80    1
   84    80    81    1
   85    80    82    1
   86    80    83    1
   87    83    84    1
   88    85    86    1
   89    85    87    1
   90    85    88    1
   91    88    89    1
   92    88    90    1
   93    90    91    1
   94    88    92    1
   95    92    93    1
   96    92    94    1
   97    94    95    1
   98    66    96    1
   99    92    96    1
  100    96    97    1
  101    96    98    1
  102    98    99    1
  103    85   100    1
  104    98   100    1
  105    98   101    1
  106   101   102    1
  107   101   103    1
  108   101   104    1
  109   104   105    1
  110   106   107    1
  111    12   108    1
  112   106   108    1
  113   106   109    1
  114   109   110    1
  115   109   111    1
  116   111   112    1
  117   109   113    1
  118   113   114    1
  119   113   115    1
  120   115   116    1
  121    87   117    1
  122   113   117    1
  123   117   118    1
  124   117   119    1
  125   119   120    1
  126   106   121    1
  127   119   121    1
  128   119   122    1
  129   122   123    1
  130   122   124    1
  131   122   125    1
  132   125   126    1
  133   127   128    1
  134   127   129    2
  135   127   130    1
  136   130   131    1
  137   130   132    2
  138   132   133    1
  139   132   134    1
  140   134   135    1
  141   134   136    1
  142   134   137    1
  143   137   138    1
  144   137   139    1
  145   137   140    1
  146   140   141    1
  147   140   142    1
  148   140   143    1
@<TRIPOS>SUBSTRUCTURE
       1 MOL1            1 RESIDUE      1      MOL     
       2 MOL1          143 RESIDUE      1      MOL     
@<SCITEGIC>MOL_PROPERTY
feprocess Rank
SciTegic.value.IntegerValue
29

@<SCITEGIC>MOL_PROPERTY
Conf_Id
SciTegic.value.IntegerValue
885

@<SCITEGIC>MOL_PROPERTY
Probability
SciTegic.value.DoubleValue
0.12

@<SCITEGIC>MOL_PROPERTY
G
SciTegic.value.DoubleValue
498.623

@<SCITEGIC>MOL_PROPERTY
E
SciTegic.value.DoubleValue
316.164

@<SCITEGIC>MOL_PROPERTY
-TS
SciTegic.value.DoubleValue
182.459

@<SCITEGIC>MOL_PROPERTY
U+W
SciTegic.value.DoubleValue
190.076

@<SCITEGIC>MOL_PROPERTY
U
SciTegic.value.DoubleValue
272.025

@<SCITEGIC>MOL_PROPERTY
W
SciTegic.value.DoubleValue
-81.950

@<SCITEGIC>MOL_PROPERTY
W(PB)
SciTegic.value.DoubleValue
-87.999

@<SCITEGIC>MOL_PROPERTY
W(SA)
SciTegic.value.DoubleValue
6.049

@<SCITEGIC>MOL_PROPERTY
Valence
SciTegic.value.DoubleValue
150.497

@<SCITEGIC>MOL_PROPERTY
Coulomb
SciTegic.value.DoubleValue
144.218

@<SCITEGIC>MOL_PROPERTY
VdW
SciTegic.value.DoubleValue
-22.690

@<SCITEGIC>MOL_PROPERTY
VdW6
SciTegic.value.DoubleValue
-179.288

@<SCITEGIC>MOL_PROPERTY
VdW12
SciTegic.value.DoubleValue
156.598

@<SCITEGIC>MOL_PROPERTY
Bond
SciTegic.value.DoubleValue
5.070

@<SCITEGIC>MOL_PROPERTY
Angle
SciTegic.value.DoubleValue
14.408

@<SCITEGIC>MOL_PROPERTY
Pdih
SciTegic.value.DoubleValue
130.879

@<SCITEGIC>MOL_PROPERTY
Idih
SciTegic.value.DoubleValue
0.140

@<SCITEGIC>MOL_PROPERTY
Tether
SciTegic.value.DoubleValue
0.000

@<TRIPOS>MOLECULE
CD_guest-s19_fast_vm2_rndm.mol2 : feprocess host+ligand conformer 30
         143         148           2
SMALL
USER_CHARGES
 
@<TRIPOS>ATOM
       1    C1      16.315911   15.273218   21.776200 C.3        1 MOL1         0.2972
       2    H1      15.250907   15.123313   21.996386 H          1 MOL1         0.0751
       3    O1      16.618133   16.663156   21.559626 O.3        1 MOL1        -0.3740
       4    C2      17.168849   14.773705   22.965983 C.3        1 MOL1         0.1003
       5    H2      16.954454   13.705530   23.098870 H          1 MOL1         0.0783
       6    O2      16.796250   15.480661   24.159824 O.3        1 MOL1        -0.5519
       7    H3      16.347343   16.310219   23.870515 H          1 MOL1         0.3769
       8    C3      18.684027   14.918578   22.675697 C.3        1 MOL1         0.1053
       9    H4      18.939527   15.987308   22.677677 H          1 MOL1         0.0783
      10    O3      19.426744   14.229383   23.686528 O.3        1 MOL1        -0.5519
      11    H5      19.491999   14.832908   24.474970 H          1 MOL1         0.3769
      12    C4      19.064601   14.329552   21.290148 C.3        1 MOL1         0.1018
      13    H6      19.109659   13.235337   21.371443 H          1 MOL1         0.0783
      14    C5      18.073646   14.735766   20.164066 C.3        1 MOL1         0.1043
      15    H7      18.240928   15.798128   19.946692 H          1 MOL1         0.0783
      16    O4      16.700244   14.547553   20.590807 O.3        1 MOL1        -0.3740
      17    C6      18.288473   13.959875   18.842517 C.3        1 MOL1         0.0138
      18    H8      19.235066   14.291574   18.394669 H          1 MOL1         0.0794
      19    H9      17.485168   14.228153   18.143185 H          1 MOL1         0.0794
      20    O5      18.319124   12.541807   19.046863 O.3        1 MOL1        -0.5486
      21    H10     18.381674   12.114776   18.164749 H          1 MOL1         0.3769
      22    C7      14.707888   20.305402   20.906694 C.3        1 MOL1         0.2972
      23    H11     14.005596   21.099922   20.626207 H          1 MOL1         0.0751
      24    O6      15.987400   20.831385   21.306082 O.3        1 MOL1        -0.3740
      25    C8      14.156114   19.474945   22.094145 C.3        1 MOL1         0.1003
      26    H12     13.215066   19.015333   21.765099 H          1 MOL1         0.0783
      27    O7      13.897407   20.309730   23.234009 O.3        1 MOL1        -0.5519
      28    H13     14.681935   20.903269   23.352903 H          1 MOL1         0.3769
      29    C9      15.139735   18.336853   22.463837 C.3        1 MOL1         0.1053
      30    H14     16.061458   18.789637   22.854601 H          1 MOL1         0.0783
      31    O8      14.551407   17.500836   23.464759 O.3        1 MOL1        -0.5519
      32    H15     14.159812   18.121810   24.118842 H          1 MOL1         0.3769
      33    C10     15.499689   17.497162   21.212433 C.3        1 MOL1         0.1018
      34    H16     14.621092   16.905644   20.923019 H          1 MOL1         0.0783
      35    C11     15.928112   18.383399   20.010153 C.3        1 MOL1         0.1043
      36    H17     16.882689   18.865670   20.252848 H          1 MOL1         0.0783
      37    O9      14.921907   19.404615   19.795974 O.3        1 MOL1        -0.3740
      38    C12     16.151363   17.605217   18.686738 C.3        1 MOL1         0.0138
      39    H18     17.202558   17.293404   18.643456 H          1 MOL1         0.0794
      40    H19     15.990414   18.291828   17.844999 H          1 MOL1         0.0794
      41    O10     15.306880   16.454760   18.552708 O.3        1 MOL1        -0.5486
      42    H20     15.628222   15.780967   19.196259 H          1 MOL1         0.3769
      43    C13     18.412172   24.130579   21.531571 C.3        1 MOL1         0.2972
      44    H21     18.873091   25.126321   21.565364 H          1 MOL1         0.0751
      45    O11     19.403559   23.085251   21.544333 O.3        1 MOL1        -0.3740
      46    C14     17.491723   23.939258   22.758962 C.3        1 MOL1         0.1003
      47    H22     16.698454   24.696015   22.703095 H          1 MOL1         0.0783
      48    O12     18.236100   24.116633   23.974680 O.3        1 MOL1        -0.5519
      49    H23     19.186283   23.960318   23.751224 H          1 MOL1         0.3769
      50    C15     16.829926   22.543682   22.727009 C.3        1 MOL1         0.1053
      51    H24     17.620431   21.797992   22.874348 H          1 MOL1         0.0783
      52    O13     15.874331   22.443505   23.786936 O.3        1 MOL1        -0.5519
      53    H25     16.338397   22.798182   24.578115 H          1 MOL1         0.3769
      54    C16     16.143421   22.260130   21.366699 C.3        1 MOL1         0.1018
      55    H26     15.181974   22.788565   21.340490 H          1 MOL1         0.0783
      56    C17     17.021619   22.663358   20.147697 C.3        1 MOL1         0.1043
      57    H27     17.823012   21.919047   20.065853 H          1 MOL1         0.0783
      58    O14     17.613371   23.974255   20.340898 O.3        1 MOL1        -0.3740
      59    C18     16.263533   22.663708   18.797977 C.3        1 MOL1         0.0138
      60    H28     15.977826   21.632502   18.550207 H          1 MOL1         0.0794
      61    H29     16.954072   23.002897   18.014329 H          1 MOL1         0.0794
      62    O15     15.102779   23.504298   18.819897 O.3        1 MOL1        -0.5486
      63    H30     14.405624   23.050166   19.336197 H          1 MOL1         0.3769
      64    C19     23.502764   22.563045   20.887188 C.3        1 MOL1         0.2972
      65    H31     24.543251   22.691274   20.561839 H          1 MOL1         0.0751
      66    O16     23.273453   21.251923   21.433486 O.3        1 MOL1        -0.3740
      67    C20     23.119757   23.606977   21.971011 C.3        1 MOL1         0.1003
      68    H32     23.249613   24.601816   21.525573 H          1 MOL1         0.0783
      69    O17     23.966447   23.497771   23.126052 O.3        1 MOL1        -0.5519
      70    H33     23.946759   22.550943   23.418581 H          1 MOL1         0.3769
      71    C21     21.630965   23.455992   22.374741 C.3        1 MOL1         0.1053
      72    H34     21.504384   22.485541   22.875089 H          1 MOL1         0.0783
      73    O18     21.262757   24.513940   23.266332 O.3        1 MOL1        -0.5519
      74    H35     22.001609   24.572709   23.912386 H          1 MOL1         0.3769
      75    C22     20.721309   23.477605   21.122204 C.3        1 MOL1         0.1018
      76    H36     20.732819   24.490094   20.697355 H          1 MOL1         0.0783
      77    C23     21.205177   22.473819   20.041621 C.3        1 MOL1         0.1043
      78    H37     21.089529   21.457209   20.437164 H          1 MOL1         0.0783
      79    O19     22.604826   22.731591   19.766567 O.3        1 MOL1        -0.3740
      80    C24     20.420273   22.528071   18.705013 C.3        1 MOL1         0.0138
      81    H38     19.577953   21.828428   18.768397 H          1 MOL1         0.0794
      82    H39     21.073423   22.161139   17.902122 H          1 MOL1         0.0794
      83    O20     19.935079   23.837632   18.382995 O.3        1 MOL1        -0.5486
      84    H40     19.181081   24.026444   18.989429 H          1 MOL1         0.3769
      85    C25     24.991154   17.592721   22.225585 C.3        1 MOL1         0.2972
      86    H41     25.658613   16.749107   22.443895 H          1 MOL1         0.0751
      87    O21     23.637562   17.137005   22.010141 O.3        1 MOL1        -0.3740
      88    C26     25.033977   18.601842   23.401128 C.3        1 MOL1         0.1003
      89    H42     26.061085   18.986798   23.447322 H          1 MOL1         0.0783
      90    O22     24.730170   17.986549   24.664319 O.3        1 MOL1        -0.5519
      91    H43     23.897414   17.451959   24.585130 H          1 MOL1         0.3769
      92    C27     24.108333   19.806036   23.125419 C.3        1 MOL1         0.1053
      93    H44     23.076840   19.444232   23.075814 H          1 MOL1         0.0783
      94    O23     24.243753   20.765251   24.179040 O.3        1 MOL1        -0.5519
      95    H45     24.248538   20.232363   25.005753 H          1 MOL1         0.3769
      96    C28     24.430741   20.462435   21.764586 C.3        1 MOL1         0.1018
      97    H46     25.338103   21.072373   21.867724 H          1 MOL1         0.0783
      98    C29     24.596397   19.415953   20.627889 C.3        1 MOL1         0.1043
      99    H47     23.591501   19.042458   20.399197 H          1 MOL1         0.0783
     100    O24     25.429562   18.299338   21.044058 O.3        1 MOL1        -0.3740
     101    C30     25.183392   20.009046   19.324236 C.3        1 MOL1         0.0138
     102    H48     24.427919   20.661763   18.866265 H          1 MOL1         0.0794
     103    H49     25.376540   19.190255   18.618424 H          1 MOL1         0.0794
     104    O25     26.385174   20.750921   19.565128 O.3        1 MOL1        -0.5486
     105    H50     26.742852   21.030487   18.694293 H          1 MOL1         0.3769
     106    C31     21.386259   13.990824   20.511747 C.3        1 MOL1         0.2972
     107    H51     20.975277   13.095663   20.027519 H          1 MOL1         0.0751
     108    O26     20.340446   14.897332   20.928230 O.3        1 MOL1        -0.3740
     109    C32     22.287645   13.618177   21.716427 C.3        1 MOL1         0.1003
     110    H52     23.158940   13.084853   21.315097 H          1 MOL1         0.0783
     111    O27     21.605161   12.744832   22.627426 O.3        1 MOL1        -0.5519
     112    H53     20.899764   13.281624   23.066373 H          1 MOL1         0.3769
     113    C33     22.804120   14.911999   22.400721 C.3        1 MOL1         0.1053
     114    H54     21.938166   15.448982   22.810490 H          1 MOL1         0.0783
     115    O28     23.718690   14.594020   23.456548 O.3        1 MOL1        -0.5519
     116    H55     23.405560   15.113782   24.242961 H          1 MOL1         0.3769
     117    C34     23.510562   15.841817   21.374191 C.3        1 MOL1         0.1018
     118    H56     24.491391   15.401669   21.152728 H          1 MOL1         0.0783
     119    C35     22.711124   15.997127   20.038761 C.3        1 MOL1         0.1043
     120    H57     21.848631   16.646711   20.227430 H          1 MOL1         0.0783
     121    O29     22.235746   14.702539   19.591125 O.3        1 MOL1        -0.3740
     122    C36     23.493380   16.618656   18.851083 C.3        1 MOL1         0.0138
     123    H58     23.310652   17.698005   18.829734 H          1 MOL1         0.0794
     124    H59     23.074069   16.222750   17.916348 H          1 MOL1         0.0794
     125    O30     24.901406   16.358996   18.893551 O.3        1 MOL1        -0.5486
     126    H60     25.278958   16.925959   19.606807 H          1 MOL1         0.3769
     127    C1      21.307997   16.597477   25.286875 C.2        1 MOL1         0.6173
     128    O1      22.497454   16.337744   25.316947 O.co2      1 MOL1        -0.6755
     129    O2      20.441753   15.849851   25.699963 O.co2      1 MOL1        -0.6755
     130    C2      20.922028   17.868037   24.625703 C.2        1 MOL1        -0.1504
     131    H1      21.745917   18.495441   24.315601 H          1 MOL1         0.0814
     132    C3      19.652606   18.252894   24.370203 C.2        1 MOL1        -0.1394
     133    H2      18.806235   17.631134   24.660586 H          1 MOL1         0.0817
     134    C4      19.316441   19.534690   23.636736 C.3        1 MOL1        -0.1849
     135    H3      20.103049   20.285043   23.793787 H          1 MOL1         0.0736
     136    H4      18.396830   19.958204   24.060337 H          1 MOL1         0.0736
     137    C5      19.117427   19.304821   22.122250 C.3        1 MOL1        -0.1866
     138    H5      18.299366   18.592467   21.977534 H          1 MOL1         0.0738
     139    H6      18.810919   20.245620   21.648637 H          1 MOL1         0.0738
     140    C6      20.379734   18.772703   21.413926 C.3        1 MOL1        -0.2879
     141    H7      20.648217   17.779728   21.795304 H          1 MOL1         0.0750
     142    H8      20.211007   18.685697   20.333589 H          1 MOL1         0.0750
     143    H9      21.232384   19.440973   21.577582 H          1 MOL1         0.0750
@<TRIPOS>BOND
    1     1     2    1
    2     1     3    1
    3     1     4    1
    4     4     5    1
    5     4     6    1
    6     6     7    1
    7     4     8    1
    8     8     9    1
    9     8    10    1
   10    10    11    1
   11     8    12    1
   12    12    13    1
   13    12    14    1
   14    14    15    1
   15     1    16    1
   16    14    16    1
   17    14    17    1
   18    17    18    1
   19    17    19    1
   20    17    20    1
   21    20    21    1
   22    22    23    1
   23    22    24    1
   24    22    25    1
   25    25    26    1
   26    25    27    1
   27    27    28    1
   28    25    29    1
   29    29    30    1
   30    29    31    1
   31    31    32    1
   32     3    33    1
   33    29    33    1
   34    33    34    1
   35    33    35    1
   36    35    36    1
   37    22    37    1
   38    35    37    1
   39    35    38    1
   40    38    39    1
   41    38    40    1
   42    38    41    1
   43    41    42    1
   44    43    44    1
   45    43    45    1
   46    43    46    1
   47    46    47    1
   48    46    48    1
   49    48    49    1
   50    46    50    1
   51    50    51    1
   52    50    52    1
   53    52    53    1
   54    24    54    1
   55    50    54    1
   56    54    55    1
   57    54    56    1
   58    56    57    1
   59    43    58    1
   60    56    58    1
   61    56    59    1
   62    59    60    1
   63    59    61    1
   64    59    62    1
   65    62    63    1
   66    64    65    1
   67    64    66    1
   68    64    67    1
   69    67    68    1
   70    67    69    1
   71    69    70    1
   72    67    71    1
   73    71    72    1
   74    71    73    1
   75    73    74    1
   76    45    75    1
   77    71    75    1
   78    75    76    1
   79    75    77    1
   80    77    78    1
   81    64    79    1
   82    77    79    1
   83    77    80    1
   84    80    81    1
   85    80    82    1
   86    80    83    1
   87    83    84    1
   88    85    86    1
   89    85    87    1
   90    85    88    1
   91    88    89    1
   92    88    90    1
   93    90    91    1
   94    88    92    1
   95    92    93    1
   96    92    94    1
   97    94    95    1
   98    66    96    1
   99    92    96    1
  100    96    97    1
  101    96    98    1
  102    98    99    1
  103    85   100    1
  104    98   100    1
  105    98   101    1
  106   101   102    1
  107   101   103    1
  108   101   104    1
  109   104   105    1
  110   106   107    1
  111    12   108    1
  112   106   108    1
  113   106   109    1
  114   109   110    1
  115   109   111    1
  116   111   112    1
  117   109   113    1
  118   113   114    1
  119   113   115    1
  120   115   116    1
  121    87   117    1
  122   113   117    1
  123   117   118    1
  124   117   119    1
  125   119   120    1
  126   106   121    1
  127   119   121    1
  128   119   122    1
  129   122   123    1
  130   122   124    1
  131   122   125    1
  132   125   126    1
  133   127   128    1
  134   127   129    2
  135   127   130    1
  136   130   131    1
  137   130   132    2
  138   132   133    1
  139   132   134    1
  140   134   135    1
  141   134   136    1
  142   134   137    1
  143   137   138    1
  144   137   139    1
  145   137   140    1
  146   140   141    1
  147   140   142    1
  148   140   143    1
@<TRIPOS>SUBSTRUCTURE
       1 MOL1            1 RESIDUE      1      MOL     
       2 MOL1          143 RESIDUE      1      MOL     
@<SCITEGIC>MOL_PROPERTY
feprocess Rank
SciTegic.value.IntegerValue
30

@<SCITEGIC>MOL_PROPERTY
Conf_Id
SciTegic.value.IntegerValue
76

@<SCITEGIC>MOL_PROPERTY
Probability
SciTegic.value.DoubleValue
0.10

@<SCITEGIC>MOL_PROPERTY
G
SciTegic.value.DoubleValue
498.702

@<SCITEGIC>MOL_PROPERTY
E
SciTegic.value.DoubleValue
316.064

@<SCITEGIC>MOL_PROPERTY
-TS
SciTegic.value.DoubleValue
182.638

@<SCITEGIC>MOL_PROPERTY
U+W
SciTegic.value.DoubleValue
189.976

@<SCITEGIC>MOL_PROPERTY
U
SciTegic.value.DoubleValue
269.851

@<SCITEGIC>MOL_PROPERTY
W
SciTegic.value.DoubleValue
-79.875

@<SCITEGIC>MOL_PROPERTY
W(PB)
SciTegic.value.DoubleValue
-85.820

@<SCITEGIC>MOL_PROPERTY
W(SA)
SciTegic.value.DoubleValue
5.945

@<SCITEGIC>MOL_PROPERTY
Valence
SciTegic.value.DoubleValue
152.163

@<SCITEGIC>MOL_PROPERTY
Coulomb
SciTegic.value.DoubleValue
141.198

@<SCITEGIC>MOL_PROPERTY
VdW
SciTegic.value.DoubleValue
-23.510

@<SCITEGIC>MOL_PROPERTY
VdW6
SciTegic.value.DoubleValue
-181.556

@<SCITEGIC>MOL_PROPERTY
VdW12
SciTegic.value.DoubleValue
158.046

@<SCITEGIC>MOL_PROPERTY
Bond
SciTegic.value.DoubleValue
5.126

@<SCITEGIC>MOL_PROPERTY
Angle
SciTegic.value.DoubleValue
14.947

@<SCITEGIC>MOL_PROPERTY
Pdih
SciTegic.value.DoubleValue
132.075

@<SCITEGIC>MOL_PROPERTY
Idih
SciTegic.value.DoubleValue
0.014

@<SCITEGIC>MOL_PROPERTY
Tether
SciTegic.value.DoubleValue
0.000

@<TRIPOS>MOLECULE
CD_guest-s19_fast_vm2_rndm.mol2 : feprocess host+ligand conformer 31
         143         148           2
SMALL
USER_CHARGES
 
@<TRIPOS>ATOM
       1    C1      16.035722   15.087189   20.771277 C.3        1 MOL1         0.2972
       2    H1      15.066554   14.829992   20.325094 H          1 MOL1         0.0751
       3    O1      15.952677   16.329228   21.500656 O.3        1 MOL1        -0.3740
       4    C2      16.488388   13.958785   21.741627 C.3        1 MOL1         0.1003
       5    H2      16.516042   13.031298   21.155365 H          1 MOL1         0.0783
       6    O2      15.559089   13.793508   22.822851 O.3        1 MOL1        -0.5519
       7    H3      15.652394   14.595509   23.406464 H          1 MOL1         0.3769
       8    C3      17.914924   14.208499   22.294464 C.3        1 MOL1         0.1053
       9    H4      17.878437   15.079896   22.958221 H          1 MOL1         0.0783
      10    O3      18.357487   13.060083   23.025673 O.3        1 MOL1        -0.5519
      11    H5      17.616817   12.841507   23.633573 H          1 MOL1         0.3769
      12    C4      18.907222   14.521743   21.150697 C.3        1 MOL1         0.1018
      13    H6      19.061865   13.610922   20.557052 H          1 MOL1         0.0783
      14    C5      18.354233   15.633886   20.223287 C.3        1 MOL1         0.1043
      15    H7      18.247547   16.557388   20.803746 H          1 MOL1         0.0783
      16    O4      17.053255   15.216651   19.751965 O.3        1 MOL1        -0.3740
      17    C6      19.244277   15.961607   18.997727 C.3        1 MOL1         0.0138
      18    H8      19.991388   16.705729   19.300124 H          1 MOL1         0.0794
      19    H9      18.619276   16.435219   18.229144 H          1 MOL1         0.0794
      20    O5      19.902023   14.810058   18.455599 O.3        1 MOL1        -0.5486
      21    H10     20.608098   14.551019   19.092752 H          1 MOL1         0.3769
      22    C7      14.654705   20.200218   20.763993 C.3        1 MOL1         0.2972
      23    H11     14.113460   21.119914   20.508632 H          1 MOL1         0.0751
      24    O6      16.062874   20.461613   20.962231 O.3        1 MOL1        -0.3740
      25    C8      14.036179   19.531042   22.016982 C.3        1 MOL1         0.1003
      26    H12     13.006025   19.252582   21.760422 H          1 MOL1         0.0783
      27    O7      14.002936   20.442886   23.125745 O.3        1 MOL1        -0.5519
      28    H13     14.939312   20.554396   23.425790 H          1 MOL1         0.3769
      29    C9      14.804494   18.230271   22.360560 C.3        1 MOL1         0.1053
      30    H14     15.817726   18.518995   22.667602 H          1 MOL1         0.0783
      31    O8      14.151609   17.541626   23.434004 O.3        1 MOL1        -0.5519
      32    H15     14.816633   16.901002   23.802507 H          1 MOL1         0.3769
      33    C10     14.914226   17.273268   21.138094 C.3        1 MOL1         0.1018
      34    H16     13.949702   16.760877   21.030996 H          1 MOL1         0.0783
      35    C11     15.267721   18.016271   19.803225 C.3        1 MOL1         0.1043
      36    H17     16.341822   18.244254   19.807347 H          1 MOL1         0.0783
      37    O9      14.521387   19.253790   19.691272 O.3        1 MOL1        -0.3740
      38    C12     14.941421   17.234817   18.502034 C.3        1 MOL1         0.0138
      39    H18     15.729718   16.505282   18.295240 H          1 MOL1         0.0794
      40    H19     14.956744   17.944344   17.663674 H          1 MOL1         0.0794
      41    O10     13.668223   16.578886   18.560308 O.3        1 MOL1        -0.5486
      42    H20     13.502674   16.172703   17.681657 H          1 MOL1         0.3769
      43    C13     18.626780   23.665239   21.851637 C.3        1 MOL1         0.2972
      44    H21     19.006092   24.647284   22.160829 H          1 MOL1         0.0751
      45    O11     19.663662   22.869801   21.243570 O.3        1 MOL1        -0.3740
      46    C14     18.043378   22.906776   23.075140 C.3        1 MOL1         0.1003
      47    H22     17.252436   23.541564   23.495299 H          1 MOL1         0.0783
      48    O12     19.040307   22.675071   24.083812 O.3        1 MOL1        -0.5519
      49    H23     19.757057   23.337764   23.939210 H          1 MOL1         0.3769
      50    C15     17.401925   21.564977   22.651813 C.3        1 MOL1         0.1053
      51    H24     18.201868   20.904493   22.297206 H          1 MOL1         0.0783
      52    O13     16.754040   20.986930   23.789146 O.3        1 MOL1        -0.5519
      53    H25     17.444574   20.981407   24.488583 H          1 MOL1         0.3769
      54    C16     16.391484   21.765057   21.495988 C.3        1 MOL1         0.1018
      55    H26     15.505958   22.277530   21.894933 H          1 MOL1         0.0783
      56    C17     17.001089   22.611495   20.344407 C.3        1 MOL1         0.1043
      57    H27     17.791842   22.019545   19.864826 H          1 MOL1         0.0783
      58    O14     17.572585   23.832140   20.879803 O.3        1 MOL1        -0.3740
      59    C18     15.977866   22.996455   19.248740 C.3        1 MOL1         0.0138
      60    H28     15.712755   22.091080   18.686040 H          1 MOL1         0.0794
      61    H29     16.461931   23.687327   18.545551 H          1 MOL1         0.0794
      62    O15     14.794729   23.591630   19.797310 O.3        1 MOL1        -0.5486
      63    H30     14.233838   23.885523   19.046634 H          1 MOL1         0.3769
      64    C19     23.815683   22.847491   21.026596 C.3        1 MOL1         0.2972
      65    H31     24.877750   23.060881   20.853667 H          1 MOL1         0.0751
      66    O16     23.596832   21.487550   21.445383 O.3        1 MOL1        -0.3740
      67    C20     23.251046   23.769032   22.133861 C.3        1 MOL1         0.1003
      68    H32     23.341056   24.803583   21.777663 H          1 MOL1         0.0783
      69    O17     23.998073   23.624606   23.352503 O.3        1 MOL1        -0.5519
      70    H33     24.224334   22.664991   23.448165 H          1 MOL1         0.3769
      71    C21     21.749641   23.478301   22.379704 C.3        1 MOL1         0.1053
      72    H34     21.663115   22.471243   22.809514 H          1 MOL1         0.0783
      73    O18     21.250905   24.445811   23.310279 O.3        1 MOL1        -0.5519
      74    H35     21.969693   24.544895   23.976092 H          1 MOL1         0.3769
      75    C22     20.941613   23.513743   21.049646 C.3        1 MOL1         0.1018
      76    H36     20.815537   24.558189   20.737681 H          1 MOL1         0.0783
      77    C23     21.644416   22.725322   19.908319 C.3        1 MOL1         0.1043
      78    H37     21.565167   21.655892   20.135357 H          1 MOL1         0.0783
      79    O19     23.046155   23.085911   19.829621 O.3        1 MOL1        -0.3740
      80    C24     20.995230   22.933512   18.517758 C.3        1 MOL1         0.0138
      81    H38     20.034030   22.402295   18.499068 H          1 MOL1         0.0794
      82    H39     21.638050   22.466255   17.760080 H          1 MOL1         0.0794
      83    O20     20.788954   24.315985   18.202545 O.3        1 MOL1        -0.5486
      84    H40     20.036151   24.632374   18.746884 H          1 MOL1         0.3769
      85    C25     25.207341   17.720857   21.821123 C.3        1 MOL1         0.2972
      86    H41     25.840244   16.825484   21.864971 H          1 MOL1         0.0751
      87    O21     23.812667   17.399914   21.990982 O.3        1 MOL1        -0.3740
      88    C26     25.610251   18.701344   22.948090 C.3        1 MOL1         0.1003
      89    H42     26.658913   18.982291   22.785522 H          1 MOL1         0.0783
      90    O22     25.478994   18.068013   24.231002 O.3        1 MOL1        -0.5519
      91    H43     24.709693   17.447594   24.168692 H          1 MOL1         0.3769
      92    C27     24.754057   19.987693   22.890446 C.3        1 MOL1         0.1053
      93    H44     23.727394   19.719507   23.168589 H          1 MOL1         0.0783
      94    O23     25.262852   20.944230   23.825266 O.3        1 MOL1        -0.5519
      95    H45     25.409702   20.435801   24.654077 H          1 MOL1         0.3769
      96    C28     24.730935   20.603062   21.467813 C.3        1 MOL1         0.1018
      97    H46     25.678103   21.131178   21.299658 H          1 MOL1         0.0783
      98    C29     24.504509   19.544221   20.351323 C.3        1 MOL1         0.1043
      99    H47     23.458252   19.218442   20.406134 H          1 MOL1         0.0783
     100    O24     25.367091   18.396376   20.556783 O.3        1 MOL1        -0.3740
     101    C30     24.733189   20.081409   18.917376 C.3        1 MOL1         0.0138
     102    H48     23.921396   20.777393   18.666742 H          1 MOL1         0.0794
     103    H49     24.662701   19.238383   18.217388 H          1 MOL1         0.0794
     104    O25     25.999697   20.734229   18.767265 O.3        1 MOL1        -0.5486
     105    H50     25.902797   21.652923   19.094441 H          1 MOL1         0.3769
     106    C31     21.247060   14.080500   21.656254 C.3        1 MOL1         0.2972
     107    H51     20.906884   13.044400   21.529796 H          1 MOL1         0.0751
     108    O26     20.131276   14.984047   21.753309 O.3        1 MOL1        -0.3740
     109    C32     22.080405   14.195498   22.959337 C.3        1 MOL1         0.1003
     110    H52     22.907554   13.477798   22.883768 H          1 MOL1         0.0783
     111    O27     21.272951   13.865124   24.099862 O.3        1 MOL1        -0.5519
     112    H53     20.334027   13.996950   23.824114 H          1 MOL1         0.3769
     113    C33     22.691122   15.607995   23.119105 C.3        1 MOL1         0.1053
     114    H54     21.872734   16.323927   23.278727 H          1 MOL1         0.0783
     115    O28     23.579666   15.620481   24.242187 O.3        1 MOL1        -0.5519
     116    H55     23.077792   15.181816   24.964849 H          1 MOL1         0.3769
     117    C34     23.453408   16.014609   21.837147 C.3        1 MOL1         0.1018
     118    H56     24.334926   15.368238   21.733970 H          1 MOL1         0.0783
     119    C35     22.549681   15.860074   20.584796 C.3        1 MOL1         0.1043
     120    H57     21.706749   16.552019   20.693700 H          1 MOL1         0.0783
     121    O29     22.054097   14.496733   20.530091 O.3        1 MOL1        -0.3740
     122    C36     23.234287   16.190943   19.234249 C.3        1 MOL1         0.0138
     123    H58     23.164040   17.272801   19.065080 H          1 MOL1         0.0794
     124    H59     22.670274   15.705939   18.426458 H          1 MOL1         0.0794
     125    O30     24.607000   15.787891   19.185340 O.3        1 MOL1        -0.5486
     126    H60     25.130679   16.528630   19.568595 H          1 MOL1         0.3769
     127    C1      16.882451   16.152410   25.516505 C.2        1 MOL1         0.6173
     128    O1      16.093612   15.880947   24.627355 O.co2      1 MOL1        -0.6755
     129    O2      16.777429   15.724225   26.649416 O.co2      1 MOL1        -0.6755
     130    C2      18.044504   17.037442   25.223786 C.2        1 MOL1        -0.1504
     131    H1      18.712385   17.240161   26.057380 H          1 MOL1         0.0814
     132    C3      18.287604   17.574070   24.007634 C.2        1 MOL1        -0.1394
     133    H2      17.619561   17.368960   23.176146 H          1 MOL1         0.0817
     134    C4      19.461639   18.473706   23.691723 C.3        1 MOL1        -0.1849
     135    H3      20.361220   18.117123   24.210667 H          1 MOL1         0.0736
     136    H4      19.262633   19.486851   24.064009 H          1 MOL1         0.0736
     137    C5      19.725507   18.517514   22.173486 C.3        1 MOL1        -0.1866
     138    H5      19.985065   17.513265   21.829913 H          1 MOL1         0.0738
     139    H6      18.812427   18.816087   21.640853 H          1 MOL1         0.0738
     140    C6      20.869117   19.475319   21.811320 C.3        1 MOL1        -0.2879
     141    H7      21.797428   19.161433   22.298247 H          1 MOL1         0.0750
     142    H8      21.034907   19.485123   20.727656 H          1 MOL1         0.0750
     143    H9      20.639157   20.495876   22.137911 H          1 MOL1         0.0750
@<TRIPOS>BOND
    1     1     2    1
    2     1     3    1
    3     1     4    1
    4     4     5    1
    5     4     6    1
    6     6     7    1
    7     4     8    1
    8     8     9    1
    9     8    10    1
   10    10    11    1
   11     8    12    1
   12    12    13    1
   13    12    14    1
   14    14    15    1
   15     1    16    1
   16    14    16    1
   17    14    17    1
   18    17    18    1
   19    17    19    1
   20    17    20    1
   21    20    21    1
   22    22    23    1
   23    22    24    1
   24    22    25    1
   25    25    26    1
   26    25    27    1
   27    27    28    1
   28    25    29    1
   29    29    30    1
   30    29    31    1
   31    31    32    1
   32     3    33    1
   33    29    33    1
   34    33    34    1
   35    33    35    1
   36    35    36    1
   37    22    37    1
   38    35    37    1
   39    35    38    1
   40    38    39    1
   41    38    40    1
   42    38    41    1
   43    41    42    1
   44    43    44    1
   45    43    45    1
   46    43    46    1
   47    46    47    1
   48    46    48    1
   49    48    49    1
   50    46    50    1
   51    50    51    1
   52    50    52    1
   53    52    53    1
   54    24    54    1
   55    50    54    1
   56    54    55    1
   57    54    56    1
   58    56    57    1
   59    43    58    1
   60    56    58    1
   61    56    59    1
   62    59    60    1
   63    59    61    1
   64    59    62    1
   65    62    63    1
   66    64    65    1
   67    64    66    1
   68    64    67    1
   69    67    68    1
   70    67    69    1
   71    69    70    1
   72    67    71    1
   73    71    72    1
   74    71    73    1
   75    73    74    1
   76    45    75    1
   77    71    75    1
   78    75    76    1
   79    75    77    1
   80    77    78    1
   81    64    79    1
   82    77    79    1
   83    77    80    1
   84    80    81    1
   85    80    82    1
   86    80    83    1
   87    83    84    1
   88    85    86    1
   89    85    87    1
   90    85    88    1
   91    88    89    1
   92    88    90    1
   93    90    91    1
   94    88    92    1
   95    92    93    1
   96    92    94    1
   97    94    95    1
   98    66    96    1
   99    92    96    1
  100    96    97    1
  101    96    98    1
  102    98    99    1
  103    85   100    1
  104    98   100    1
  105    98   101    1
  106   101   102    1
  107   101   103    1
  108   101   104    1
  109   104   105    1
  110   106   107    1
  111    12   108    1
  112   106   108    1
  113   106   109    1
  114   109   110    1
  115   109   111    1
  116   111   112    1
  117   109   113    1
  118   113   114    1
  119   113   115    1
  120   115   116    1
  121    87   117    1
  122   113   117    1
  123   117   118    1
  124   117   119    1
  125   119   120    1
  126   106   121    1
  127   119   121    1
  128   119   122    1
  129   122   123    1
  130   122   124    1
  131   122   125    1
  132   125   126    1
  133   127   128    1
  134   127   129    2
  135   127   130    1
  136   130   131    1
  137   130   132    2
  138   132   133    1
  139   132   134    1
  140   134   135    1
  141   134   136    1
  142   134   137    1
  143   137   138    1
  144   137   139    1
  145   137   140    1
  146   140   141    1
  147   140   142    1
  148   140   143    1
@<TRIPOS>SUBSTRUCTURE
       1 MOL1            1 RESIDUE      1      MOL     
       2 MOL1          143 RESIDUE      1      MOL     
@<SCITEGIC>MOL_PROPERTY
feprocess Rank
SciTegic.value.IntegerValue
31

@<SCITEGIC>MOL_PROPERTY
Conf_Id
SciTegic.value.IntegerValue
626

@<SCITEGIC>MOL_PROPERTY
Probability
SciTegic.value.DoubleValue
0.10

@<SCITEGIC>MOL_PROPERTY
G
SciTegic.value.DoubleValue
498.732

@<SCITEGIC>MOL_PROPERTY
E
SciTegic.value.DoubleValue
316.743

@<SCITEGIC>MOL_PROPERTY
-TS
SciTegic.value.DoubleValue
181.990

@<SCITEGIC>MOL_PROPERTY
U+W
SciTegic.value.DoubleValue
190.655

@<SCITEGIC>MOL_PROPERTY
U
SciTegic.value.DoubleValue
275.832

@<SCITEGIC>MOL_PROPERTY
W
SciTegic.value.DoubleValue
-85.177

@<SCITEGIC>MOL_PROPERTY
W(PB)
SciTegic.value.DoubleValue
-91.374

@<SCITEGIC>MOL_PROPERTY
W(SA)
SciTegic.value.DoubleValue
6.196

@<SCITEGIC>MOL_PROPERTY
Valence
SciTegic.value.DoubleValue
148.572

@<SCITEGIC>MOL_PROPERTY
Coulomb
SciTegic.value.DoubleValue
149.995

@<SCITEGIC>MOL_PROPERTY
VdW
SciTegic.value.DoubleValue
-22.735

@<SCITEGIC>MOL_PROPERTY
VdW6
SciTegic.value.DoubleValue
-177.711

@<SCITEGIC>MOL_PROPERTY
VdW12
SciTegic.value.DoubleValue
154.975

@<SCITEGIC>MOL_PROPERTY
Bond
SciTegic.value.DoubleValue
5.093

@<SCITEGIC>MOL_PROPERTY
Angle
SciTegic.value.DoubleValue
14.228

@<SCITEGIC>MOL_PROPERTY
Pdih
SciTegic.value.DoubleValue
129.251

@<SCITEGIC>MOL_PROPERTY
Idih
SciTegic.value.DoubleValue
0.000

@<SCITEGIC>MOL_PROPERTY
Tether
SciTegic.value.DoubleValue
0.000

@<TRIPOS>MOLECULE
CD_guest-s19_fast_vm2_rndm.mol2 : feprocess host+ligand conformer 32
         143         148           2
SMALL
USER_CHARGES
 
@<TRIPOS>ATOM
       1    C1      16.140107   15.245313   21.974684 C.3        1 MOL1         0.2972
       2    H1      15.069166   15.084746   22.154242 H          1 MOL1         0.0751
       3    O1      16.426547   16.648042   21.785556 O.3        1 MOL1        -0.3740
       4    C2      16.952750   14.694772   23.173563 C.3        1 MOL1         0.1003
       5    H2      16.772127   13.612332   23.205067 H          1 MOL1         0.0783
       6    O2      16.527671   15.255639   24.427624 O.3        1 MOL1        -0.5519
       7    H3      16.435768   16.239204   24.341535 H          1 MOL1         0.3769
       8    C3      18.467552   14.896603   22.950928 C.3        1 MOL1         0.1053
       9    H4      18.674961   15.970436   22.915817 H          1 MOL1         0.0783
      10    O3      19.192410   14.290521   24.025787 O.3        1 MOL1        -0.5519
      11    H5      18.700038   14.547189   24.837677 H          1 MOL1         0.3769
      12    C4      18.923214   14.304452   21.599133 C.3        1 MOL1         0.1018
      13    H6      18.999700   13.212895   21.692066 H          1 MOL1         0.0783
      14    C5      17.972390   14.694658   20.433559 C.3        1 MOL1         0.1043
      15    H7      18.157164   15.754176   20.222675 H          1 MOL1         0.0783
      16    O4      16.575317   14.525964   20.799528 O.3        1 MOL1        -0.3740
      17    C6      18.239631   13.904967   19.129539 C.3        1 MOL1         0.0138
      18    H8      19.198339   14.238419   18.709704 H          1 MOL1         0.0794
      19    H9      17.459702   14.155023   18.398037 H          1 MOL1         0.0794
      20    O5      18.273729   12.490661   19.355764 O.3        1 MOL1        -0.5486
      21    H10     18.367718   12.050978   18.482654 H          1 MOL1         0.3769
      22    C7      14.871578   20.191736   20.301587 C.3        1 MOL1         0.2972
      23    H11     14.316819   21.000600   19.810698 H          1 MOL1         0.0751
      24    O6      16.158921   20.643932   20.780322 O.3        1 MOL1        -0.3740
      25    C8      14.047190   19.565535   21.454197 C.3        1 MOL1         0.1003
      26    H12     13.171830   19.084393   20.999203 H          1 MOL1         0.0783
      27    O7      13.583874   20.571237   22.366235 O.3        1 MOL1        -0.5519
      28    H13     14.372080   20.878471   22.878805 H          1 MOL1         0.3769
      29    C9      14.879970   18.457088   22.151533 C.3        1 MOL1         0.1053
      30    H14     15.753401   18.929932   22.620350 H          1 MOL1         0.0783
      31    O8      14.095011   17.792314   23.148588 O.3        1 MOL1        -0.5519
      32    H15     14.635223   17.829270   23.981459 H          1 MOL1         0.3769
      33    C10     15.389783   17.410118   21.121133 C.3        1 MOL1         0.1018
      34    H16     14.536138   16.777806   20.844919 H          1 MOL1         0.0783
      35    C11     15.979414   18.059562   19.826433 C.3        1 MOL1         0.1043
      36    H17     16.960987   18.481985   20.070174 H          1 MOL1         0.0783
      37    O9      15.110410   19.124442   19.364551 O.3        1 MOL1        -0.3740
      38    C12     16.187604   17.099512   18.624722 C.3        1 MOL1         0.0138
      39    H18     17.217278   16.727259   18.640213 H          1 MOL1         0.0794
      40    H19     16.090225   17.680253   17.697606 H          1 MOL1         0.0794
      41    O10     15.268167   16.001269   18.602257 O.3        1 MOL1        -0.5486
      42    H20     15.538528   15.381588   19.320315 H          1 MOL1         0.3769
      43    C13     18.485487   23.859136   21.922958 C.3        1 MOL1         0.2972
      44    H21     18.884452   24.838087   22.219390 H          1 MOL1         0.0751
      45    O11     19.545881   22.909826   21.703789 O.3        1 MOL1        -0.3740
      46    C14     17.565033   23.314561   23.040550 C.3        1 MOL1         0.1003
      47    H22     16.752783   24.039073   23.181899 H          1 MOL1         0.0783
      48    O12     18.309711   23.196976   24.261452 O.3        1 MOL1        -0.5519
      49    H23     19.222880   22.942047   24.001760 H          1 MOL1         0.3769
      50    C15     16.927500   21.959729   22.644269 C.3        1 MOL1         0.1053
      51    H24     17.713967   21.192357   22.641999 H          1 MOL1         0.0783
      52    O13     15.911486   21.624411   23.593673 O.3        1 MOL1        -0.5519
      53    H25     16.366366   21.281747   24.409912 H          1 MOL1         0.3769
      54    C16     16.289337   22.009358   21.229520 C.3        1 MOL1         0.1018
      55    H26     15.318665   22.516992   21.296178 H          1 MOL1         0.0783
      56    C17     17.194004   22.718106   20.184189 C.3        1 MOL1         0.1043
      57    H27     18.027460   22.038834   19.969171 H          1 MOL1         0.0783
      58    O14     17.720013   23.964930   20.705152 O.3        1 MOL1        -0.3740
      59    C18     16.481662   23.010418   18.840873 C.3        1 MOL1         0.0138
      60    H28     16.214000   22.055911   18.367717 H          1 MOL1         0.0794
      61    H29     17.193022   23.512113   18.171468 H          1 MOL1         0.0794
      62    O15     15.312156   23.823416   19.004531 O.3        1 MOL1        -0.5486
      63    H30     14.653368   23.317348   19.522613 H          1 MOL1         0.3769
      64    C19     23.645819   22.748565   21.019403 C.3        1 MOL1         0.2972
      65    H31     24.686432   22.934024   20.723382 H          1 MOL1         0.0751
      66    O16     23.445293   21.394594   21.464481 O.3        1 MOL1        -0.3740
      67    C20     23.217411   23.682585   22.179125 C.3        1 MOL1         0.1003
      68    H32     23.299249   24.715674   21.817089 H          1 MOL1         0.0783
      69    O17     24.071778   23.514060   23.322045 O.3        1 MOL1        -0.5519
      70    H33     24.144079   22.541487   23.497661 H          1 MOL1         0.3769
      71    C21     21.738850   23.425273   22.565522 C.3        1 MOL1         0.1053
      72    H34     21.668674   22.420654   23.004954 H          1 MOL1         0.0783
      73    O18     21.325562   24.401977   23.525381 O.3        1 MOL1        -0.5519
      74    H35     22.050928   24.435817   24.187572 H          1 MOL1         0.3769
      75    C22     20.813942   23.476755   21.321032 C.3        1 MOL1         0.1018
      76    H36     20.715046   24.523867   21.006073 H          1 MOL1         0.0783
      77    C23     21.367446   22.642056   20.130840 C.3        1 MOL1         0.1043
      78    H37     21.303906   21.578096   20.389284 H          1 MOL1         0.0783
      79    O19     22.755043   22.993599   19.908263 O.3        1 MOL1        -0.3740
      80    C24     20.592890   22.821329   18.798730 C.3        1 MOL1         0.0138
      81    H38     19.802205   22.062727   18.752357 H          1 MOL1         0.0794
      82    H39     21.277049   22.610426   17.966027 H          1 MOL1         0.0794
      83    O20     20.019850   24.126205   18.643297 O.3        1 MOL1        -0.5486
      84    H40     19.290287   24.207896   19.301087 H          1 MOL1         0.3769
      85    C25     25.097041   17.674924   21.813503 C.3        1 MOL1         0.2972
      86    H41     25.716985   16.772840   21.897747 H          1 MOL1         0.0751
      87    O21     23.698054   17.349098   21.696611 O.3        1 MOL1        -0.3740
      88    C26     25.284918   18.558389   23.068437 C.3        1 MOL1         0.1003
      89    H42     26.337200   18.869032   23.104662 H          1 MOL1         0.0783
      90    O22     24.964381   17.814745   24.254882 O.3        1 MOL1        -0.5519
      91    H43     24.379379   17.070111   23.972601 H          1 MOL1         0.3769
      92    C27     24.410090   19.827959   22.971434 C.3        1 MOL1         0.1053
      93    H44     23.362042   19.513200   23.032693 H          1 MOL1         0.0783
      94    O23     24.708714   20.703039   24.063751 O.3        1 MOL1        -0.5519
      95    H45     24.713868   20.122333   24.857219 H          1 MOL1         0.3769
      96    C28     24.613481   20.571749   21.627475 C.3        1 MOL1         0.1018
      97    H46     25.535938   21.164089   21.689463 H          1 MOL1         0.0783
      98    C29     24.656903   19.622589   20.395756 C.3        1 MOL1         0.1043
      99    H47     23.627402   19.300307   20.200026 H          1 MOL1         0.0783
     100    O24     25.473949   18.452073   20.658461 O.3        1 MOL1        -0.3740
     101    C30     25.173803   20.303927   19.106356 C.3        1 MOL1         0.0138
     102    H48     24.416892   21.022209   18.763496 H          1 MOL1         0.0794
     103    H49     25.276881   19.541113   18.322854 H          1 MOL1         0.0794
     104    O25     26.421984   20.975860   19.315584 O.3        1 MOL1        -0.5486
     105    H50     26.722033   21.324128   18.447693 H          1 MOL1         0.3769
     106    C31     21.242222   14.080219   20.809943 C.3        1 MOL1         0.2972
     107    H51     20.850753   13.125605   20.435279 H          1 MOL1         0.0751
     108    O26     20.192443   14.923073   21.317960 O.3        1 MOL1        -0.3740
     109    C32     22.277988   13.858009   21.945693 C.3        1 MOL1         0.1003
     110    H52     23.099273   13.263560   21.524842 H          1 MOL1         0.0783
     111    O27     21.702810   13.142266   23.049823 O.3        1 MOL1        -0.5519
     112    H53     20.886982   13.632329   23.326660 H          1 MOL1         0.3769
     113    C33     22.865342   15.210662   22.422836 C.3        1 MOL1         0.1053
     114    H54     22.059866   15.790438   22.895144 H          1 MOL1         0.0783
     115    O28     23.913530   14.975370   23.369187 O.3        1 MOL1        -0.5519
     116    H55     23.561304   14.285731   23.975033 H          1 MOL1         0.3769
     117    C34     23.407301   16.023291   21.221391 C.3        1 MOL1         0.1018
     118    H56     24.302952   15.521213   20.832139 H          1 MOL1         0.0783
     119    C35     22.358323   16.135653   20.082214 C.3        1 MOL1         0.1043
     120    H57     21.513723   16.734188   20.446930 H          1 MOL1         0.0783
     121    O29     21.899845   14.802541   19.744257 O.3        1 MOL1        -0.3740
     122    C36     22.872195   16.822321   18.789766 C.3        1 MOL1         0.0138
     123    H58     22.669371   17.897614   18.863767 H          1 MOL1         0.0794
     124    H59     22.284136   16.450807   17.940016 H          1 MOL1         0.0794
     125    O30     24.269286   16.610038   18.549384 O.3        1 MOL1        -0.5486
     126    H60     24.764738   17.133158   19.222162 H          1 MOL1         0.3769
     127    C1      16.921460   18.860356   25.200782 C.2        1 MOL1         0.6173
     128    O1      16.052456   18.008147   25.163092 O.co2      1 MOL1        -0.6755
     129    O2      16.759398   19.974511   25.661728 O.co2      1 MOL1        -0.6755
     130    C2      18.214615   18.513096   24.563752 C.2        1 MOL1        -0.1504
     131    H1      18.288247   17.498053   24.203115 H          1 MOL1         0.0814
     132    C3      19.249946   19.363088   24.391791 C.2        1 MOL1        -0.1394
     133    H2      19.194411   20.394755   24.737175 H          1 MOL1         0.0817
     134    C4      20.530736   18.962462   23.688888 C.3        1 MOL1        -0.1849
     135    H3      20.680217   17.876030   23.749903 H          1 MOL1         0.0736
     136    H4      21.381534   19.419572   24.209818 H          1 MOL1         0.0736
     137    C5      20.545179   19.402633   22.208621 C.3        1 MOL1        -0.1866
     138    H5      20.431109   20.490599   22.163203 H          1 MOL1         0.0738
     139    H6      21.520539   19.165435   21.766098 H          1 MOL1         0.0738
     140    C6      19.439526   18.736061   21.364788 C.3        1 MOL1        -0.2879
     141    H7      18.445563   19.014975   21.735660 H          1 MOL1         0.0750
     142    H8      19.509766   19.050876   20.316363 H          1 MOL1         0.0750
     143    H9      19.521939   17.643587   21.402403 H          1 MOL1         0.0750
@<TRIPOS>BOND
    1     1     2    1
    2     1     3    1
    3     1     4    1
    4     4     5    1
    5     4     6    1
    6     6     7    1
    7     4     8    1
    8     8     9    1
    9     8    10    1
   10    10    11    1
   11     8    12    1
   12    12    13    1
   13    12    14    1
   14    14    15    1
   15     1    16    1
   16    14    16    1
   17    14    17    1
   18    17    18    1
   19    17    19    1
   20    17    20    1
   21    20    21    1
   22    22    23    1
   23    22    24    1
   24    22    25    1
   25    25    26    1
   26    25    27    1
   27    27    28    1
   28    25    29    1
   29    29    30    1
   30    29    31    1
   31    31    32    1
   32     3    33    1
   33    29    33    1
   34    33    34    1
   35    33    35    1
   36    35    36    1
   37    22    37    1
   38    35    37    1
   39    35    38    1
   40    38    39    1
   41    38    40    1
   42    38    41    1
   43    41    42    1
   44    43    44    1
   45    43    45    1
   46    43    46    1
   47    46    47    1
   48    46    48    1
   49    48    49    1
   50    46    50    1
   51    50    51    1
   52    50    52    1
   53    52    53    1
   54    24    54    1
   55    50    54    1
   56    54    55    1
   57    54    56    1
   58    56    57    1
   59    43    58    1
   60    56    58    1
   61    56    59    1
   62    59    60    1
   63    59    61    1
   64    59    62    1
   65    62    63    1
   66    64    65    1
   67    64    66    1
   68    64    67    1
   69    67    68    1
   70    67    69    1
   71    69    70    1
   72    67    71    1
   73    71    72    1
   74    71    73    1
   75    73    74    1
   76    45    75    1
   77    71    75    1
   78    75    76    1
   79    75    77    1
   80    77    78    1
   81    64    79    1
   82    77    79    1
   83    77    80    1
   84    80    81    1
   85    80    82    1
   86    80    83    1
   87    83    84    1
   88    85    86    1
   89    85    87    1
   90    85    88    1
   91    88    89    1
   92    88    90    1
   93    90    91    1
   94    88    92    1
   95    92    93    1
   96    92    94    1
   97    94    95    1
   98    66    96    1
   99    92    96    1
  100    96    97    1
  101    96    98    1
  102    98    99    1
  103    85   100    1
  104    98   100    1
  105    98   101    1
  106   101   102    1
  107   101   103    1
  108   101   104    1
  109   104   105    1
  110   106   107    1
  111    12   108    1
  112   106   108    1
  113   106   109    1
  114   109   110    1
  115   109   111    1
  116   111   112    1
  117   109   113    1
  118   113   114    1
  119   113   115    1
  120   115   116    1
  121    87   117    1
  122   113   117    1
  123   117   118    1
  124   117   119    1
  125   119   120    1
  126   106   121    1
  127   119   121    1
  128   119   122    1
  129   122   123    1
  130   122   124    1
  131   122   125    1
  132   125   126    1
  133   127   128    1
  134   127   129    2
  135   127   130    1
  136   130   131    1
  137   130   132    2
  138   132   133    1
  139   132   134    1
  140   134   135    1
  141   134   136    1
  142   134   137    1
  143   137   138    1
  144   137   139    1
  145   137   140    1
  146   140   141    1
  147   140   142    1
  148   140   143    1
@<TRIPOS>SUBSTRUCTURE
       1 MOL1            1 RESIDUE      1      MOL     
       2 MOL1          143 RESIDUE      1      MOL     
@<SCITEGIC>MOL_PROPERTY
feprocess Rank
SciTegic.value.IntegerValue
32

@<SCITEGIC>MOL_PROPERTY
Conf_Id
SciTegic.value.IntegerValue
760

@<SCITEGIC>MOL_PROPERTY
Probability
SciTegic.value.DoubleValue
0.09

@<SCITEGIC>MOL_PROPERTY
G
SciTegic.value.DoubleValue
498.768

@<SCITEGIC>MOL_PROPERTY
E
SciTegic.value.DoubleValue
316.011

@<SCITEGIC>MOL_PROPERTY
-TS
SciTegic.value.DoubleValue
182.757

@<SCITEGIC>MOL_PROPERTY
U+W
SciTegic.value.DoubleValue
189.923

@<SCITEGIC>MOL_PROPERTY
U
SciTegic.value.DoubleValue
267.133

@<SCITEGIC>MOL_PROPERTY
W
SciTegic.value.DoubleValue
-77.210

@<SCITEGIC>MOL_PROPERTY
W(PB)
SciTegic.value.DoubleValue
-83.172

@<SCITEGIC>MOL_PROPERTY
W(SA)
SciTegic.value.DoubleValue
5.962

@<SCITEGIC>MOL_PROPERTY
Valence
SciTegic.value.DoubleValue
151.236

@<SCITEGIC>MOL_PROPERTY
Coulomb
SciTegic.value.DoubleValue
139.812

@<SCITEGIC>MOL_PROPERTY
VdW
SciTegic.value.DoubleValue
-23.916

@<SCITEGIC>MOL_PROPERTY
VdW6
SciTegic.value.DoubleValue
-181.721

@<SCITEGIC>MOL_PROPERTY
VdW12
SciTegic.value.DoubleValue
157.805

@<SCITEGIC>MOL_PROPERTY
Bond
SciTegic.value.DoubleValue
5.093

@<SCITEGIC>MOL_PROPERTY
Angle
SciTegic.value.DoubleValue
15.307

@<SCITEGIC>MOL_PROPERTY
Pdih
SciTegic.value.DoubleValue
130.824

@<SCITEGIC>MOL_PROPERTY
Idih
SciTegic.value.DoubleValue
0.012

@<SCITEGIC>MOL_PROPERTY
Tether
SciTegic.value.DoubleValue
0.000

@<TRIPOS>MOLECULE
CD_guest-s19_fast_vm2_rndm.mol2 : feprocess host+ligand conformer 33
         143         148           2
SMALL
USER_CHARGES
 
@<TRIPOS>ATOM
       1    C1      16.552231   15.507019   22.515537 C.3        1 MOL1         0.2972
       2    H1      15.544792   15.499282   22.950528 H          1 MOL1         0.0751
       3    O1      16.844309   16.778319   21.895696 O.3        1 MOL1        -0.3740
       4    C2      17.599696   15.210341   23.617675 C.3        1 MOL1         0.1003
       5    H2      17.421520   14.182691   23.959374 H          1 MOL1         0.0783
       6    O2      17.434367   16.094618   24.739722 O.3        1 MOL1        -0.5519
       7    H3      18.123818   16.806804   24.693955 H          1 MOL1         0.3769
       8    C3      19.024285   15.264357   23.017457 C.3        1 MOL1         0.1053
       9    H4      19.198130   16.281133   22.646920 H          1 MOL1         0.0783
      10    O3      20.006350   14.932504   24.007099 O.3        1 MOL1        -0.5519
      11    H5      20.414056   15.799106   24.280054 H          1 MOL1         0.3769
      12    C4      19.157761   14.316126   21.800137 C.3        1 MOL1         0.1018
      13    H6      19.272234   13.283102   22.153701 H          1 MOL1         0.0783
      14    C5      17.958286   14.426092   20.815955 C.3        1 MOL1         0.1043
      15    H7      18.092802   15.361756   20.266028 H          1 MOL1         0.0783
      16    O4      16.682928   14.477135   21.509886 O.3        1 MOL1        -0.3740
      17    C6      17.909758   13.286077   19.771121 C.3        1 MOL1         0.0138
      18    H8      18.749840   13.415162   19.075360 H          1 MOL1         0.0794
      19    H9      16.985270   13.382412   19.186118 H          1 MOL1         0.0794
      20    O5      17.979432   11.992696   20.383200 O.3        1 MOL1        -0.5486
      21    H10     17.867082   11.320923   19.675540 H          1 MOL1         0.3769
      22    C7      14.954081   20.159991   20.415608 C.3        1 MOL1         0.2972
      23    H11     14.298618   20.887211   19.919320 H          1 MOL1         0.0751
      24    O6      16.173739   20.767159   20.884500 O.3        1 MOL1        -0.3740
      25    C8      14.244143   19.520048   21.632415 C.3        1 MOL1         0.1003
      26    H12     13.349601   19.008566   21.253799 H          1 MOL1         0.0783
      27    O7      13.844026   20.521144   22.582395 O.3        1 MOL1        -0.5519
      28    H13     14.614398   21.130450   22.714108 H          1 MOL1         0.3769
      29    C9      15.146765   18.457029   22.308555 C.3        1 MOL1         0.1053
      30    H14     15.988990   18.973536   22.790067 H          1 MOL1         0.0783
      31    O8      14.367967   17.767800   23.291691 O.3        1 MOL1        -0.5519
      32    H15     13.941896   18.474632   23.824606 H          1 MOL1         0.3769
      33    C10     15.724996   17.447152   21.277881 C.3        1 MOL1         0.1018
      34    H16     14.931285   16.739457   21.006654 H          1 MOL1         0.0783
      35    C11     16.259699   18.136656   19.987674 C.3        1 MOL1         0.1043
      36    H17     17.190340   18.660584   20.239087 H          1 MOL1         0.0783
      37    O9      15.289279   19.094583   19.505098 O.3        1 MOL1        -0.3740
      38    C12     16.581756   17.168498   18.818960 C.3        1 MOL1         0.0138
      39    H18     17.626498   16.851294   18.903380 H          1 MOL1         0.0794
      40    H19     16.505904   17.724179   17.874732 H          1 MOL1         0.0794
      41    O10     15.724732   16.019287   18.779807 O.3        1 MOL1        -0.5486
      42    H20     15.873908   15.509895   19.607858 H          1 MOL1         0.3769
      43    C13     18.411140   24.216085   20.786285 C.3        1 MOL1         0.2972
      44    H21     18.833781   25.221864   20.673464 H          1 MOL1         0.0751
      45    O11     19.443976   23.231425   21.018979 O.3        1 MOL1        -0.3740
      46    C14     17.355309   24.176005   21.921751 C.3        1 MOL1         0.1003
      47    H22     16.518335   24.810721   21.602146 H          1 MOL1         0.0783
      48    O12     17.866648   24.690805   23.158914 O.3        1 MOL1        -0.5519
      49    H23     18.552553   24.049646   23.472232 H          1 MOL1         0.3769
      50    C15     16.816399   22.735044   22.087477 C.3        1 MOL1         0.1053
      51    H24     17.642297   22.086704   22.411621 H          1 MOL1         0.0783
      52    O13     15.774680   22.722277   23.069484 O.3        1 MOL1        -0.5519
      53    H25     16.117844   23.261016   23.816681 H          1 MOL1         0.3769
      54    C16     16.271501   22.196381   20.740755 C.3        1 MOL1         0.1018
      55    H26     15.291519   22.659178   20.564547 H          1 MOL1         0.0783
      56    C17     17.214488   22.480915   19.533740 C.3        1 MOL1         0.1043
      57    H27     18.065853   21.792888   19.592816 H          1 MOL1         0.0783
      58    O14     17.714201   23.842403   19.579564 O.3        1 MOL1        -0.3740
      59    C18     16.540339   22.251064   18.160033 C.3        1 MOL1         0.0138
      60    H28     16.383797   21.172464   18.024913 H          1 MOL1         0.0794
      61    H29     17.230530   22.580940   17.372063 H          1 MOL1         0.0794
      62    O15     15.288647   22.940768   18.049068 O.3        1 MOL1        -0.5486
      63    H30     14.951484   22.800500   17.137456 H          1 MOL1         0.3769
      64    C19     23.249458   22.505767   22.456617 C.3        1 MOL1         0.2972
      65    H31     24.252490   22.542318   22.900650 H          1 MOL1         0.0751
      66    O16     23.034518   21.285835   21.720678 O.3        1 MOL1        -0.3740
      67    C20     22.168470   22.618928   23.558408 C.3        1 MOL1         0.1003
      68    H32     22.295404   23.597764   24.038903 H          1 MOL1         0.0783
      69    O17     22.311296   21.590135   24.550287 O.3        1 MOL1        -0.5519
      70    H33     23.085104   21.036280   24.284674 H          1 MOL1         0.3769
      71    C21     20.754825   22.570352   22.937652 C.3        1 MOL1         0.1053
      72    H34     20.609025   21.573681   22.505446 H          1 MOL1         0.0783
      73    O18     19.800206   22.785475   23.979493 O.3        1 MOL1        -0.5519
      74    H35     20.091551   22.183297   24.701907 H          1 MOL1         0.3769
      75    C22     20.591748   23.619887   21.804212 C.3        1 MOL1         0.1018
      76    H36     20.465865   24.611055   22.257718 H          1 MOL1         0.0783
      77    C23     21.803393   23.631637   20.826074 C.3        1 MOL1         0.1043
      78    H37     21.739720   22.729820   20.203536 H          1 MOL1         0.0783
      79    O19     23.059648   23.612656   21.551163 O.3        1 MOL1        -0.3740
      80    C24     21.812886   24.845759   19.865633 C.3        1 MOL1         0.0138
      81    H38     20.942830   24.775532   19.198731 H          1 MOL1         0.0794
      82    H39     22.708656   24.779422   19.233973 H          1 MOL1         0.0794
      83    O20     21.800072   26.099636   20.561499 O.3        1 MOL1        -0.5486
      84    H40     20.933718   26.197570   21.006966 H          1 MOL1         0.3769
      85    C25     25.026104   17.670318   21.058029 C.3        1 MOL1         0.2972
      86    H41     25.775248   16.904879   20.820076 H          1 MOL1         0.0751
      87    O21     23.714742   17.105393   21.229357 O.3        1 MOL1        -0.3740
      88    C26     25.393374   18.387045   22.381333 C.3        1 MOL1         0.1003
      89    H42     26.369948   18.866412   22.234353 H          1 MOL1         0.0783
      90    O22     25.491310   17.446878   23.462607 O.3        1 MOL1        -0.5519
      91    H43     24.793022   16.760268   23.315186 H          1 MOL1         0.3769
      92    C27     24.365074   19.496143   22.715596 C.3        1 MOL1         0.1053
      93    H44     23.396204   19.021547   22.930044 H          1 MOL1         0.0783
      94    O23     24.824367   20.210568   23.867434 O.3        1 MOL1        -0.5519
      95    H45     25.136224   19.511039   24.485943 H          1 MOL1         0.3769
      96    C28     24.189267   20.453927   21.506046 C.3        1 MOL1         0.1018
      97    H46     25.099211   21.056731   21.389754 H          1 MOL1         0.0783
      98    C29     23.929279   19.673149   20.189703 C.3        1 MOL1         0.1043
      99    H47     22.953621   19.182482   20.273706 H          1 MOL1         0.0783
     100    O24     24.955135   18.663933   20.011009 O.3        1 MOL1        -0.3740
     101    C30     23.866515   20.568762   18.927169 C.3        1 MOL1         0.0138
     102    H48     22.872712   21.034191   18.883520 H          1 MOL1         0.0794
     103    H49     23.961322   19.930321   18.038903 H          1 MOL1         0.0794
     104    O25     24.874196   21.587181   18.915394 O.3        1 MOL1        -0.5486
     105    H50     24.633365   22.241665   19.607035 H          1 MOL1         0.3769
     106    C31     21.296413   13.815836   20.655480 C.3        1 MOL1         0.2972
     107    H51     20.832304   12.856680   20.392565 H          1 MOL1         0.0751
     108    O26     20.310380   14.782143   21.071091 O.3        1 MOL1        -0.3740
     109    C32     22.373423   13.639922   21.760746 C.3        1 MOL1         0.1003
     110    H52     23.161785   13.003019   21.338879 H          1 MOL1         0.0783
     111    O27     21.848332   13.000630   22.933687 O.3        1 MOL1        -0.5519
     112    H53     21.184572   13.622184   23.325311 H          1 MOL1         0.3769
     113    C33     23.011065   15.005460   22.116595 C.3        1 MOL1         0.1053
     114    H54     22.241472   15.637388   22.581491 H          1 MOL1         0.0783
     115    O28     24.092601   14.804472   23.032550 O.3        1 MOL1        -0.5519
     116    H55     23.737139   14.201934   23.722685 H          1 MOL1         0.3769
     117    C34     23.528589   15.731875   20.849755 C.3        1 MOL1         0.1018
     118    H56     24.463933   15.255191   20.530190 H          1 MOL1         0.0783
     119    C35     22.501158   15.713272   19.683881 C.3        1 MOL1         0.1043
     120    H57     21.679914   16.391800   19.948061 H          1 MOL1         0.0783
     121    O29     21.972801   14.373030   19.507197 O.3        1 MOL1        -0.3740
     122    C36     23.071856   16.206416   18.331326 C.3        1 MOL1         0.0138
     123    H58     23.194352   17.296475   18.377655 H          1 MOL1         0.0794
     124    H59     22.331226   15.998804   17.547666 H          1 MOL1         0.0794
     125    O30     24.323584   15.593774   17.999179 O.3        1 MOL1        -0.5486
     126    H60     25.029614   16.108071   18.445340 H          1 MOL1         0.3769
     127    C1      20.136075   18.225507   24.079973 C.2        1 MOL1         0.6173
     128    O1      21.129655   17.522352   24.069897 O.co2      1 MOL1        -0.6755
     129    O2      19.328405   18.203592   24.987121 O.co2      1 MOL1        -0.6755
     130    C2      19.750947   18.975171   22.855478 C.2        1 MOL1        -0.1504
     131    H1      18.832606   19.553707   22.924816 H          1 MOL1         0.0814
     132    C3      20.450620   18.938070   21.700124 C.2        1 MOL1        -0.1394
     133    H2      21.358718   18.343795   21.623265 H          1 MOL1         0.0817
     134    C4      20.027764   19.680458   20.452309 C.3        1 MOL1        -0.1849
     135    H3      20.657085   20.567561   20.311727 H          1 MOL1         0.0736
     136    H4      19.001182   20.043605   20.578809 H          1 MOL1         0.0736
     137    C5      20.107240   18.785025   19.201190 C.3        1 MOL1        -0.1866
     138    H5      21.154534   18.540894   18.987846 H          1 MOL1         0.0738
     139    H6      19.594882   17.834745   19.397627 H          1 MOL1         0.0738
     140    C6      19.481442   19.470776   17.971069 C.3        1 MOL1        -0.2879
     141    H7      19.988906   20.418928   17.750797 H          1 MOL1         0.0750
     142    H8      19.563430   18.826998   17.086015 H          1 MOL1         0.0750
     143    H9      18.418078   19.681897   18.138967 H          1 MOL1         0.0750
@<TRIPOS>BOND
    1     1     2    1
    2     1     3    1
    3     1     4    1
    4     4     5    1
    5     4     6    1
    6     6     7    1
    7     4     8    1
    8     8     9    1
    9     8    10    1
   10    10    11    1
   11     8    12    1
   12    12    13    1
   13    12    14    1
   14    14    15    1
   15     1    16    1
   16    14    16    1
   17    14    17    1
   18    17    18    1
   19    17    19    1
   20    17    20    1
   21    20    21    1
   22    22    23    1
   23    22    24    1
   24    22    25    1
   25    25    26    1
   26    25    27    1
   27    27    28    1
   28    25    29    1
   29    29    30    1
   30    29    31    1
   31    31    32    1
   32     3    33    1
   33    29    33    1
   34    33    34    1
   35    33    35    1
   36    35    36    1
   37    22    37    1
   38    35    37    1
   39    35    38    1
   40    38    39    1
   41    38    40    1
   42    38    41    1
   43    41    42    1
   44    43    44    1
   45    43    45    1
   46    43    46    1
   47    46    47    1
   48    46    48    1
   49    48    49    1
   50    46    50    1
   51    50    51    1
   52    50    52    1
   53    52    53    1
   54    24    54    1
   55    50    54    1
   56    54    55    1
   57    54    56    1
   58    56    57    1
   59    43    58    1
   60    56    58    1
   61    56    59    1
   62    59    60    1
   63    59    61    1
   64    59    62    1
   65    62    63    1
   66    64    65    1
   67    64    66    1
   68    64    67    1
   69    67    68    1
   70    67    69    1
   71    69    70    1
   72    67    71    1
   73    71    72    1
   74    71    73    1
   75    73    74    1
   76    45    75    1
   77    71    75    1
   78    75    76    1
   79    75    77    1
   80    77    78    1
   81    64    79    1
   82    77    79    1
   83    77    80    1
   84    80    81    1
   85    80    82    1
   86    80    83    1
   87    83    84    1
   88    85    86    1
   89    85    87    1
   90    85    88    1
   91    88    89    1
   92    88    90    1
   93    90    91    1
   94    88    92    1
   95    92    93    1
   96    92    94    1
   97    94    95    1
   98    66    96    1
   99    92    96    1
  100    96    97    1
  101    96    98    1
  102    98    99    1
  103    85   100    1
  104    98   100    1
  105    98   101    1
  106   101   102    1
  107   101   103    1
  108   101   104    1
  109   104   105    1
  110   106   107    1
  111    12   108    1
  112   106   108    1
  113   106   109    1
  114   109   110    1
  115   109   111    1
  116   111   112    1
  117   109   113    1
  118   113   114    1
  119   113   115    1
  120   115   116    1
  121    87   117    1
  122   113   117    1
  123   117   118    1
  124   117   119    1
  125   119   120    1
  126   106   121    1
  127   119   121    1
  128   119   122    1
  129   122   123    1
  130   122   124    1
  131   122   125    1
  132   125   126    1
  133   127   128    1
  134   127   129    2
  135   127   130    1
  136   130   131    1
  137   130   132    2
  138   132   133    1
  139   132   134    1
  140   134   135    1
  141   134   136    1
  142   134   137    1
  143   137   138    1
  144   137   139    1
  145   137   140    1
  146   140   141    1
  147   140   142    1
  148   140   143    1
@<TRIPOS>SUBSTRUCTURE
       1 MOL1            1 RESIDUE      1      MOL     
       2 MOL1          143 RESIDUE      1      MOL     
@<SCITEGIC>MOL_PROPERTY
feprocess Rank
SciTegic.value.IntegerValue
33

@<SCITEGIC>MOL_PROPERTY
Conf_Id
SciTegic.value.IntegerValue
378

@<SCITEGIC>MOL_PROPERTY
Probability
SciTegic.value.DoubleValue
0.09

@<SCITEGIC>MOL_PROPERTY
G
SciTegic.value.DoubleValue
498.789

@<SCITEGIC>MOL_PROPERTY
E
SciTegic.value.DoubleValue
316.979

@<SCITEGIC>MOL_PROPERTY
-TS
SciTegic.value.DoubleValue
181.810

@<SCITEGIC>MOL_PROPERTY
U+W
SciTegic.value.DoubleValue
190.891

@<SCITEGIC>MOL_PROPERTY
U
SciTegic.value.DoubleValue
265.875

@<SCITEGIC>MOL_PROPERTY
W
SciTegic.value.DoubleValue
-74.984

@<SCITEGIC>MOL_PROPERTY
W(PB)
SciTegic.value.DoubleValue
-80.915

@<SCITEGIC>MOL_PROPERTY
W(SA)
SciTegic.value.DoubleValue
5.931

@<SCITEGIC>MOL_PROPERTY
Valence
SciTegic.value.DoubleValue
149.652

@<SCITEGIC>MOL_PROPERTY
Coulomb
SciTegic.value.DoubleValue
141.729

@<SCITEGIC>MOL_PROPERTY
VdW
SciTegic.value.DoubleValue
-25.506

@<SCITEGIC>MOL_PROPERTY
VdW6
SciTegic.value.DoubleValue
-182.311

@<SCITEGIC>MOL_PROPERTY
VdW12
SciTegic.value.DoubleValue
156.805

@<SCITEGIC>MOL_PROPERTY
Bond
SciTegic.value.DoubleValue
4.894

@<SCITEGIC>MOL_PROPERTY
Angle
SciTegic.value.DoubleValue
15.609

@<SCITEGIC>MOL_PROPERTY
Pdih
SciTegic.value.DoubleValue
129.071

@<SCITEGIC>MOL_PROPERTY
Idih
SciTegic.value.DoubleValue
0.078

@<SCITEGIC>MOL_PROPERTY
Tether
SciTegic.value.DoubleValue
0.000

@<TRIPOS>MOLECULE
CD_guest-s19_fast_vm2_rndm.mol2 : feprocess host+ligand conformer 34
         143         148           2
SMALL
USER_CHARGES
 
@<TRIPOS>ATOM
       1    C1      16.166271   14.977386   20.500288 C.3        1 MOL1         0.2972
       2    H1      15.128862   15.083972   20.158160 H          1 MOL1         0.0751
       3    O1      16.711874   16.241566   20.940785 O.3        1 MOL1        -0.3740
       4    C2      16.275164   13.922408   21.625598 C.3        1 MOL1         0.1003
       5    H2      16.023220   12.947802   21.187995 H          1 MOL1         0.0783
       6    O2      15.350277   14.206989   22.686210 O.3        1 MOL1        -0.5519
       7    H3      15.692353   15.010481   23.150562 H          1 MOL1         0.3769
       8    C3      17.737729   13.854711   22.130710 C.3        1 MOL1         0.1053
       9    H4      17.957520   14.810651   22.622039 H          1 MOL1         0.0783
      10    O3      17.887560   12.787637   23.075567 O.3        1 MOL1        -0.5519
      11    H5      18.674256   13.014598   23.639113 H          1 MOL1         0.3769
      12    C4      18.764335   13.663215   20.975288 C.3        1 MOL1         0.1018
      13    H6      18.838507   12.587126   20.773167 H          1 MOL1         0.0783
      14    C5      18.410152   14.428255   19.651512 C.3        1 MOL1         0.1043
      15    H7      18.791868   15.454040   19.735924 H          1 MOL1         0.0783
      16    O4      16.979953   14.485282   19.425395 O.3        1 MOL1        -0.3740
      17    C6      19.001533   13.796061   18.363288 C.3        1 MOL1         0.0138
      18    H8      20.076094   13.993317   18.306042 H          1 MOL1         0.0794
      19    H9      18.547793   14.295349   17.496570 H          1 MOL1         0.0794
      20    O5      18.764300   12.384283   18.292966 O.3        1 MOL1        -0.5486
      21    H10     19.097781   12.069230   17.424526 H          1 MOL1         0.3769
      22    C7      15.491964   20.033487   22.233455 C.3        1 MOL1         0.2972
      23    H11     14.860051   20.857786   22.584323 H          1 MOL1         0.0751
      24    O6      16.836545   20.490913   21.967373 O.3        1 MOL1        -0.3740
      25    C8      15.542750   18.934406   23.321457 C.3        1 MOL1         0.1003
      26    H12     14.509106   18.621422   23.518679 H          1 MOL1         0.0783
      27    O7      16.115022   19.450205   24.531104 O.3        1 MOL1        -0.5519
      28    H13     16.939437   19.915848   24.269324 H          1 MOL1         0.3769
      29    C9      16.329355   17.696427   22.835933 C.3        1 MOL1         0.1053
      30    H14     17.377145   17.984690   22.681780 H          1 MOL1         0.0783
      31    O8      16.240721   16.682051   23.840122 O.3        1 MOL1        -0.5519
      32    H15     16.429591   17.145464   24.686260 H          1 MOL1         0.3769
      33    C10     15.765394   17.184024   21.488629 C.3        1 MOL1         0.1018
      34    H16     14.782691   16.726627   21.666228 H          1 MOL1         0.0783
      35    C11     15.634841   18.332447   20.453796 C.3        1 MOL1         0.1043
      36    H17     16.650222   18.634491   20.179551 H          1 MOL1         0.0783
      37    O9      14.937811   19.469831   21.022724 O.3        1 MOL1        -0.3740
      38    C12     14.904383   17.911635   19.155343 C.3        1 MOL1         0.0138
      39    H18     15.554575   17.224989   18.596280 H          1 MOL1         0.0794
      40    H19     14.755712   18.801102   18.528681 H          1 MOL1         0.0794
      41    O10     13.647853   17.278260   19.426489 O.3        1 MOL1        -0.5486
      42    H20     13.207460   17.108898   18.565175 H          1 MOL1         0.3769
      43    C13     18.586450   24.177584   20.836981 C.3        1 MOL1         0.2972
      44    H21     18.739795   25.137971   20.327949 H          1 MOL1         0.0751
      45    O11     19.733942   23.830050   21.634918 O.3        1 MOL1        -0.3740
      46    C14     17.363951   24.270155   21.785565 C.3        1 MOL1         0.1003
      47    H22     16.506282   24.595067   21.182129 H          1 MOL1         0.0783
      48    O12     17.610986   25.236174   22.818321 O.3        1 MOL1        -0.5519
      49    H23     18.524811   25.058616   23.139814 H          1 MOL1         0.3769
      50    C15     17.010892   22.898397   22.416221 C.3        1 MOL1         0.1053
      51    H24     17.810053   22.627409   23.118182 H          1 MOL1         0.0783
      52    O13     15.771653   23.037915   23.116654 O.3        1 MOL1        -0.5519
      53    H25     15.872515   23.849226   23.661934 H          1 MOL1         0.3769
      54    C16     16.918986   21.787866   21.333173 C.3        1 MOL1         0.1018
      55    H26     16.037701   21.978754   20.706672 H          1 MOL1         0.0783
      56    C17     18.181945   21.796628   20.434110 C.3        1 MOL1         0.1043
      57    H27     19.055643   21.542097   21.049128 H          1 MOL1         0.0783
      58    O14     18.339004   23.122686   19.883407 O.3        1 MOL1        -0.3740
      59    C18     18.133490   20.795392   19.254990 C.3        1 MOL1         0.0138
      60    H28     18.365634   19.794596   19.640337 H          1 MOL1         0.0794
      61    H29     18.928338   21.053163   18.542560 H          1 MOL1         0.0794
      62    O15     16.862387   20.787404   18.591914 O.3        1 MOL1        -0.5486
      63    H30     16.182055   20.552204   19.259866 H          1 MOL1         0.3769
      64    C19     23.661469   23.003817   20.917035 C.3        1 MOL1         0.2972
      65    H31     24.725560   22.915212   20.662914 H          1 MOL1         0.0751
      66    O16     23.086623   21.723724   21.259112 O.3        1 MOL1        -0.3740
      67    C20     23.444784   24.014198   22.067414 C.3        1 MOL1         0.1003
      68    H32     23.733961   25.003529   21.689080 H          1 MOL1         0.0783
      69    O17     24.250579   23.704294   23.213583 O.3        1 MOL1        -0.5519
      70    H33     23.961312   22.813172   23.534934 H          1 MOL1         0.3769
      71    C21     21.946961   24.068067   22.441986 C.3        1 MOL1         0.1053
      72    H34     21.675107   23.096092   22.877642 H          1 MOL1         0.0783
      73    O18     21.746988   25.099601   23.414684 O.3        1 MOL1        -0.5519
      74    H35     22.454509   24.964641   24.082989 H          1 MOL1         0.3769
      75    C22     21.030589   24.317532   21.209716 C.3        1 MOL1         0.1018
      76    H36     20.994790   25.400241   21.034931 H          1 MOL1         0.0783
      77    C23     21.495993   23.586282   19.899220 C.3        1 MOL1         0.1043
      78    H37     21.110103   22.558874   19.922153 H          1 MOL1         0.0783
      79    O19     22.940759   23.534875   19.795372 O.3        1 MOL1        -0.3740
      80    C24     21.021513   24.254734   18.580298 C.3        1 MOL1         0.0138
      81    H38     19.960114   24.048508   18.411868 H          1 MOL1         0.0794
      82    H39     21.562975   23.789065   17.745773 H          1 MOL1         0.0794
      83    O20     21.245067   25.670390   18.577789 O.3        1 MOL1        -0.5486
      84    H40     21.002251   26.008667   17.688157 H          1 MOL1         0.3769
      85    C25     24.278242   17.872020   22.391842 C.3        1 MOL1         0.2972
      86    H41     24.892444   17.026271   22.726362 H          1 MOL1         0.0751
      87    O21     22.951317   17.436318   22.029808 O.3        1 MOL1        -0.3740
      88    C26     24.169952   18.910131   23.534269 C.3        1 MOL1         0.1003
      89    H42     25.190263   19.226604   23.787225 H          1 MOL1         0.0783
      90    O22     23.562991   18.323353   24.693332 O.3        1 MOL1        -0.5519
      91    H43     22.885642   17.691023   24.363681 H          1 MOL1         0.3769
      92    C27     23.385246   20.161438   23.081207 C.3        1 MOL1         0.1053
      93    H44     22.347272   19.869511   22.869657 H          1 MOL1         0.0783
      94    O23     23.420243   21.127618   24.135575 O.3        1 MOL1        -0.5519
      95    H45     23.178032   20.624428   24.944845 H          1 MOL1         0.3769
      96    C28     24.005217   20.745970   21.789630 C.3        1 MOL1         0.1018
      97    H46     24.979048   21.189430   22.037804 H          1 MOL1         0.0783
      98    C29     24.187479   19.656071   20.699129 C.3        1 MOL1         0.1043
      99    H47     23.187941   19.353629   20.367239 H          1 MOL1         0.0783
     100    O24     24.880676   18.501341   21.238717 O.3        1 MOL1        -0.3740
     101    C30     24.963822   20.153485   19.455591 C.3        1 MOL1         0.0138
     102    H48     24.328674   20.863935   18.909125 H          1 MOL1         0.0794
     103    H49     25.146773   19.300768   18.788164 H          1 MOL1         0.0794
     104    O25     26.201525   20.782660   19.810717 O.3        1 MOL1        -0.5486
     105    H50     26.674285   21.000892   18.978056 H          1 MOL1         0.3769
     106    C31     21.239426   13.735290   20.905982 C.3        1 MOL1         0.2972
     107    H51     21.123194   12.745279   20.446763 H          1 MOL1         0.0751
     108    O26     20.007781   14.167367   21.519814 O.3        1 MOL1        -0.3740
     109    C32     22.335612   13.684477   22.003260 C.3        1 MOL1         0.1003
     110    H52     23.266563   13.376229   21.510523 H          1 MOL1         0.0783
     111    O27     22.012289   12.709839   23.008923 O.3        1 MOL1        -0.5519
     112    H53     21.280449   13.076444   23.572128 H          1 MOL1         0.3769
     113    C33     22.569432   15.096052   22.605020 C.3        1 MOL1         0.1053
     114    H54     21.636923   15.438675   23.063293 H          1 MOL1         0.0783
     115    O28     23.606485   15.055428   23.590527 O.3        1 MOL1        -0.5519
     116    H55     23.161609   14.731754   24.416810 H          1 MOL1         0.3769
     117    C34     22.899553   16.103630   21.477285 C.3        1 MOL1         0.1018
     118    H56     23.855787   15.823140   21.015661 H          1 MOL1         0.0783
     119    C35     21.788829   16.073639   20.396303 C.3        1 MOL1         0.1043
     120    H57     20.845326   16.402620   20.852460 H          1 MOL1         0.0783
     121    O29     21.648634   14.713845   19.921564 O.3        1 MOL1        -0.3740
     122    C36     22.064800   16.991554   19.179602 C.3        1 MOL1         0.0138
     123    H58     21.749559   18.010463   19.437213 H          1 MOL1         0.0794
     124    H59     21.433280   16.665735   18.342450 H          1 MOL1         0.0794
     125    O30     23.443653   16.993230   18.786407 O.3        1 MOL1        -0.5486
     126    H60     23.966384   17.345885   19.541742 H          1 MOL1         0.3769
     127    C1      20.475873   14.654375   25.193975 C.2        1 MOL1         0.6173
     128    O1      19.979905   13.623887   24.779211 O.co2      1 MOL1        -0.6755
     129    O2      21.605189   14.704403   25.645422 O.co2      1 MOL1        -0.6755
     130    C2      19.742465   15.917021   24.910429 C.2        1 MOL1        -0.1504
     131    H1      18.776379   15.801810   24.429018 H          1 MOL1         0.0814
     132    C3      20.223851   17.152492   25.171464 C.2        1 MOL1        -0.1394
     133    H2      21.192657   17.284110   25.651532 H          1 MOL1         0.0817
     134    C4      19.481272   18.413181   24.784835 C.3        1 MOL1        -0.1849
     135    H3      18.458007   18.367936   25.175611 H          1 MOL1         0.0736
     136    H4      19.408151   18.460896   23.690641 H          1 MOL1         0.0736
     137    C5      20.168145   19.691973   25.302912 C.3        1 MOL1        -0.1866
     138    H5      20.138005   19.710818   26.400882 H          1 MOL1         0.0738
     139    H6      21.224847   19.680285   25.016309 H          1 MOL1         0.0738
     140    C6      19.507945   20.966124   24.737704 C.3        1 MOL1        -0.2879
     141    H7      19.531209   20.965339   23.640149 H          1 MOL1         0.0750
     142    H8      18.464388   21.048480   25.065426 H          1 MOL1         0.0750
     143    H9      20.041499   21.861170   25.083167 H          1 MOL1         0.0750
@<TRIPOS>BOND
    1     1     2    1
    2     1     3    1
    3     1     4    1
    4     4     5    1
    5     4     6    1
    6     6     7    1
    7     4     8    1
    8     8     9    1
    9     8    10    1
   10    10    11    1
   11     8    12    1
   12    12    13    1
   13    12    14    1
   14    14    15    1
   15     1    16    1
   16    14    16    1
   17    14    17    1
   18    17    18    1
   19    17    19    1
   20    17    20    1
   21    20    21    1
   22    22    23    1
   23    22    24    1
   24    22    25    1
   25    25    26    1
   26    25    27    1
   27    27    28    1
   28    25    29    1
   29    29    30    1
   30    29    31    1
   31    31    32    1
   32     3    33    1
   33    29    33    1
   34    33    34    1
   35    33    35    1
   36    35    36    1
   37    22    37    1
   38    35    37    1
   39    35    38    1
   40    38    39    1
   41    38    40    1
   42    38    41    1
   43    41    42    1
   44    43    44    1
   45    43    45    1
   46    43    46    1
   47    46    47    1
   48    46    48    1
   49    48    49    1
   50    46    50    1
   51    50    51    1
   52    50    52    1
   53    52    53    1
   54    24    54    1
   55    50    54    1
   56    54    55    1
   57    54    56    1
   58    56    57    1
   59    43    58    1
   60    56    58    1
   61    56    59    1
   62    59    60    1
   63    59    61    1
   64    59    62    1
   65    62    63    1
   66    64    65    1
   67    64    66    1
   68    64    67    1
   69    67    68    1
   70    67    69    1
   71    69    70    1
   72    67    71    1
   73    71    72    1
   74    71    73    1
   75    73    74    1
   76    45    75    1
   77    71    75    1
   78    75    76    1
   79    75    77    1
   80    77    78    1
   81    64    79    1
   82    77    79    1
   83    77    80    1
   84    80    81    1
   85    80    82    1
   86    80    83    1
   87    83    84    1
   88    85    86    1
   89    85    87    1
   90    85    88    1
   91    88    89    1
   92    88    90    1
   93    90    91    1
   94    88    92    1
   95    92    93    1
   96    92    94    1
   97    94    95    1
   98    66    96    1
   99    92    96    1
  100    96    97    1
  101    96    98    1
  102    98    99    1
  103    85   100    1
  104    98   100    1
  105    98   101    1
  106   101   102    1
  107   101   103    1
  108   101   104    1
  109   104   105    1
  110   106   107    1
  111    12   108    1
  112   106   108    1
  113   106   109    1
  114   109   110    1
  115   109   111    1
  116   111   112    1
  117   109   113    1
  118   113   114    1
  119   113   115    1
  120   115   116    1
  121    87   117    1
  122   113   117    1
  123   117   118    1
  124   117   119    1
  125   119   120    1
  126   106   121    1
  127   119   121    1
  128   119   122    1
  129   122   123    1
  130   122   124    1
  131   122   125    1
  132   125   126    1
  133   127   128    1
  134   127   129    2
  135   127   130    1
  136   130   131    1
  137   130   132    2
  138   132   133    1
  139   132   134    1
  140   134   135    1
  141   134   136    1
  142   134   137    1
  143   137   138    1
  144   137   139    1
  145   137   140    1
  146   140   141    1
  147   140   142    1
  148   140   143    1
@<TRIPOS>SUBSTRUCTURE
       1 MOL1            1 RESIDUE      1      MOL     
       2 MOL1          143 RESIDUE      1      MOL     
@<SCITEGIC>MOL_PROPERTY
feprocess Rank
SciTegic.value.IntegerValue
34

@<SCITEGIC>MOL_PROPERTY
Conf_Id
SciTegic.value.IntegerValue
417

@<SCITEGIC>MOL_PROPERTY
Probability
SciTegic.value.DoubleValue
0.09

@<SCITEGIC>MOL_PROPERTY
G
SciTegic.value.DoubleValue
498.798

@<SCITEGIC>MOL_PROPERTY
E
SciTegic.value.DoubleValue
316.424

@<SCITEGIC>MOL_PROPERTY
-TS
SciTegic.value.DoubleValue
182.374

@<SCITEGIC>MOL_PROPERTY
U+W
SciTegic.value.DoubleValue
190.336

@<SCITEGIC>MOL_PROPERTY
U
SciTegic.value.DoubleValue
269.383

@<SCITEGIC>MOL_PROPERTY
W
SciTegic.value.DoubleValue
-79.047

@<SCITEGIC>MOL_PROPERTY
W(PB)
SciTegic.value.DoubleValue
-85.165

@<SCITEGIC>MOL_PROPERTY
W(SA)
SciTegic.value.DoubleValue
6.119

@<SCITEGIC>MOL_PROPERTY
Valence
SciTegic.value.DoubleValue
142.761

@<SCITEGIC>MOL_PROPERTY
Coulomb
SciTegic.value.DoubleValue
146.013

@<SCITEGIC>MOL_PROPERTY
VdW
SciTegic.value.DoubleValue
-19.392

@<SCITEGIC>MOL_PROPERTY
VdW6
SciTegic.value.DoubleValue
-173.703

@<SCITEGIC>MOL_PROPERTY
VdW12
SciTegic.value.DoubleValue
154.312

@<SCITEGIC>MOL_PROPERTY
Bond
SciTegic.value.DoubleValue
5.187

@<SCITEGIC>MOL_PROPERTY
Angle
SciTegic.value.DoubleValue
15.823

@<SCITEGIC>MOL_PROPERTY
Pdih
SciTegic.value.DoubleValue
121.669

@<SCITEGIC>MOL_PROPERTY
Idih
SciTegic.value.DoubleValue
0.082

@<SCITEGIC>MOL_PROPERTY
Tether
SciTegic.value.DoubleValue
0.000

@<TRIPOS>MOLECULE
CD_guest-s19_fast_vm2_rndm.mol2 : feprocess host+ligand conformer 35
         143         148           2
SMALL
USER_CHARGES
 
@<TRIPOS>ATOM
       1    C1      16.258918   15.377352   20.425042 C.3        1 MOL1         0.2972
       2    H1      15.260010   15.176458   20.018836 H          1 MOL1         0.0751
       3    O1      16.345484   16.688168   21.015780 O.3        1 MOL1        -0.3740
       4    C2      16.620537   14.336563   21.517117 C.3        1 MOL1         0.1003
       5    H2      16.611054   13.348207   21.039354 H          1 MOL1         0.0783
       6    O2      15.661624   14.341901   22.585389 O.3        1 MOL1        -0.5519
       7    H3      15.431921   15.286801   22.776166 H          1 MOL1         0.3769
       8    C3      18.049388   14.582084   22.062334 C.3        1 MOL1         0.1053
       9    H4      18.067414   15.557016   22.568946 H          1 MOL1         0.0783
      10    O3      18.375908   13.543038   22.991423 O.3        1 MOL1        -0.5519
      11    H5      17.552507   13.408067   23.513972 H          1 MOL1         0.3769
      12    C4      19.063676   14.620542   20.888737 C.3        1 MOL1         0.1018
      13    H6      19.148384   13.616063   20.454018 H          1 MOL1         0.0783
      14    C5      18.608614   15.612958   19.785105 C.3        1 MOL1         0.1043
      15    H7      18.629344   16.627095   20.203785 H          1 MOL1         0.0783
      16    O4      17.254195   15.290970   19.380461 O.3        1 MOL1        -0.3740
      17    C6      19.523192   15.621620   18.533785 C.3        1 MOL1         0.0138
      18    H8      20.395945   16.252323   18.747689 H          1 MOL1         0.0794
      19    H9      18.980370   16.095097   17.705057 H          1 MOL1         0.0794
      20    O5      19.963081   14.311617   18.154442 O.3        1 MOL1        -0.5486
      21    H10     20.580252   13.999931   18.852475 H          1 MOL1         0.3769
      22    C7      14.472588   20.325340   21.541867 C.3        1 MOL1         0.2972
      23    H11     13.783393   21.177751   21.589982 H          1 MOL1         0.0751
      24    O6      15.809376   20.705123   21.938626 O.3        1 MOL1        -0.3740
      25    C8      13.969030   19.198950   22.477175 C.3        1 MOL1         0.1003
      26    H12     13.005966   18.855037   22.078553 H          1 MOL1         0.0783
      27    O7      13.759945   19.687739   23.811807 O.3        1 MOL1        -0.5519
      28    H13     14.642195   19.765200   24.259675 H          1 MOL1         0.3769
      29    C9      14.951407   18.004835   22.434717 C.3        1 MOL1         0.1053
      30    H14     15.924229   18.354893   22.792403 H          1 MOL1         0.0783
      31    O8      14.482374   16.930635   23.258676 O.3        1 MOL1        -0.5519
      32    H15     14.604355   17.235814   24.196521 H          1 MOL1         0.3769
      33    C10     15.163924   17.512608   20.984264 C.3        1 MOL1         0.1018
      34    H16     14.271697   16.957772   20.667500 H          1 MOL1         0.0783
      35    C11     15.453013   18.684556   20.002486 C.3        1 MOL1         0.1043
      36    H17     16.468159   19.047789   20.209693 H          1 MOL1         0.0783
      37    O9      14.516477   19.776603   20.206162 O.3        1 MOL1        -0.3740
      38    C12     15.410309   18.270564   18.510648 C.3        1 MOL1         0.0138
      39    H18     16.265967   17.614656   18.300422 H          1 MOL1         0.0794
      40    H19     15.536010   19.171004   17.895668 H          1 MOL1         0.0794
      41    O10     14.188654   17.610591   18.156763 O.3        1 MOL1        -0.5486
      42    H20     14.257710   16.675496   18.440192 H          1 MOL1         0.3769
      43    C13     18.442681   23.961760   21.730320 C.3        1 MOL1         0.2972
      44    H21     18.856261   24.974388   21.639230 H          1 MOL1         0.0751
      45    O11     19.489183   22.973455   21.826789 O.3        1 MOL1        -0.3740
      46    C14     17.571747   23.876308   23.006390 C.3        1 MOL1         0.1003
      47    H22     16.781011   24.632843   22.924080 H          1 MOL1         0.0783
      48    O12     18.389102   24.167152   24.152703 O.3        1 MOL1        -0.5519
      49    H23     19.307595   23.885339   23.924961 H          1 MOL1         0.3769
      50    C15     16.890643   22.488172   23.122694 C.3        1 MOL1         0.1053
      51    H24     17.679210   21.749762   23.299256 H          1 MOL1         0.0783
      52    O13     15.960364   22.480253   24.213048 O.3        1 MOL1        -0.5519
      53    H25     15.990428   21.566168   24.601166 H          1 MOL1         0.3769
      54    C16     16.156280   22.102222   21.810513 C.3        1 MOL1         0.1018
      55    H26     15.264850   22.736337   21.718659 H          1 MOL1         0.0783
      56    C17     17.073920   22.300224   20.567438 C.3        1 MOL1         0.1043
      57    H27     17.887732   21.567822   20.636241 H          1 MOL1         0.0783
      58    O14     17.626582   23.640558   20.586421 O.3        1 MOL1        -0.3740
      59    C18     16.400659   22.104386   19.185630 C.3        1 MOL1         0.0138
      60    H28     16.461685   21.044984   18.913150 H          1 MOL1         0.0794
      61    H29     16.981991   22.653604   18.432914 H          1 MOL1         0.0794
      62    O15     15.036493   22.535187   19.155341 O.3        1 MOL1        -0.5486
      63    H30     14.494999   21.756058   19.417572 H          1 MOL1         0.3769
      64    C19     23.561369   22.566762   20.847908 C.3        1 MOL1         0.2972
      65    H31     24.560694   22.770745   20.442132 H          1 MOL1         0.0751
      66    O16     23.470337   21.238897   21.395074 O.3        1 MOL1        -0.3740
      67    C20     23.224655   23.557366   21.993504 C.3        1 MOL1         0.1003
      68    H32     23.310589   24.573086   21.586210 H          1 MOL1         0.0783
      69    O17     24.149183   23.403166   23.083561 O.3        1 MOL1        -0.5519
      70    H33     24.268664   22.431063   23.229420 H          1 MOL1         0.3769
      71    C21     21.769454   23.363373   22.492064 C.3        1 MOL1         0.1053
      72    H34     21.701454   22.384119   22.986388 H          1 MOL1         0.0783
      73    O18     21.440459   24.401550   23.420904 O.3        1 MOL1        -0.5519
      74    H35     22.208452   24.451576   24.032461 H          1 MOL1         0.3769
      75    C22     20.772333   23.375936   21.307946 C.3        1 MOL1         0.1018
      76    H36     20.745259   24.388217   20.883316 H          1 MOL1         0.0783
      77    C23     21.208226   22.378004   20.202728 C.3        1 MOL1         0.1043
      78    H37     21.179198   21.365836   20.621293 H          1 MOL1         0.0783
      79    O19     22.564037   22.698108   19.811066 O.3        1 MOL1        -0.3740
      80    C24     20.323214   22.372663   18.930809 C.3        1 MOL1         0.0138
      81    H38     19.485621   21.683497   19.092044 H          1 MOL1         0.0794
      82    H39     20.912368   21.963553   18.099345 H          1 MOL1         0.0794
      83    O20     19.823216   23.669801   18.585979 O.3        1 MOL1        -0.5486
      84    H40     19.078051   23.863278   19.201274 H          1 MOL1         0.3769
      85    C25     25.297517   17.560569   21.337632 C.3        1 MOL1         0.2972
      86    H41     25.945791   16.678079   21.261790 H          1 MOL1         0.0751
      87    O21     23.904881   17.196371   21.436065 O.3        1 MOL1        -0.3740
      88    C26     25.678569   18.439983   22.556141 C.3        1 MOL1         0.1003
      89    H42     26.688167   18.830170   22.372410 H          1 MOL1         0.0783
      90    O22     25.690423   17.687260   23.777559 O.3        1 MOL1        -0.5519
      91    H43     24.795778   17.273330   23.876410 H          1 MOL1         0.3769
      92    C27     24.714530   19.646634   22.657101 C.3        1 MOL1         0.1053
      93    H44     23.706848   19.266121   22.875664 H          1 MOL1         0.0783
      94    O23     25.138993   20.519843   23.710096 O.3        1 MOL1        -0.5519
      95    H45     25.339986   19.927558   24.468457 H          1 MOL1         0.3769
      96    C28     24.662056   20.434137   21.323693 C.3        1 MOL1         0.1018
      97    H46     25.567904   21.051674   21.263422 H          1 MOL1         0.0783
      98    C29     24.554144   19.521975   20.063689 C.3        1 MOL1         0.1043
      99    H47     23.525650   19.146897   19.997488 H          1 MOL1         0.0783
     100    O24     25.457198   18.391844   20.169421 O.3        1 MOL1        -0.3740
     101    C30     24.855540   20.254755   18.733915 C.3        1 MOL1         0.0138
     102    H48     24.016394   20.924231   18.504113 H          1 MOL1         0.0794
     103    H49     24.903904   19.509795   17.928448 H          1 MOL1         0.0794
     104    O25     26.075850   21.004573   18.791464 O.3        1 MOL1        -0.5486
     105    H50     26.234195   21.383716   17.899421 H          1 MOL1         0.3769
     106    C31     21.230527   14.090396   21.894486 C.3        1 MOL1         0.2972
     107    H51     20.718129   13.134108   22.059712 H          1 MOL1         0.0751
     108    O26     20.336360   15.089810   21.367843 O.3        1 MOL1        -0.3740
     109    C32     21.822186   14.617090   23.224128 C.3        1 MOL1         0.1003
     110    H52     22.552876   13.875364   23.572030 H          1 MOL1         0.0783
     111    O27     20.800270   14.777278   24.222087 O.3        1 MOL1        -0.5519
     112    H53     19.968764   14.398089   23.846417 H          1 MOL1         0.3769
     113    C33     22.563047   15.954771   22.997351 C.3        1 MOL1         0.1053
     114    H54     21.821999   16.710052   22.712578 H          1 MOL1         0.0783
     115    O28     23.195124   16.342680   24.219586 O.3        1 MOL1        -0.5519
     116    H55     22.499838   16.213251   24.903914 H          1 MOL1         0.3769
     117    C34     23.600381   15.849749   21.849947 C.3        1 MOL1         0.1018
     118    H56     24.486748   15.320045   22.223300 H          1 MOL1         0.0783
     119    C35     23.032080   15.128809   20.593285 C.3        1 MOL1         0.1043
     120    H57     22.332574   15.815317   20.099630 H          1 MOL1         0.0783
     121    O29     22.319216   13.920818   20.962651 O.3        1 MOL1        -0.3740
     122    C36     24.119322   14.761734   19.555298 C.3        1 MOL1         0.0138
     123    H58     24.489600   15.689163   19.097450 H          1 MOL1         0.0794
     124    H59     23.656064   14.165964   18.757444 H          1 MOL1         0.0794
     125    O30     25.209935   14.043264   20.145927 O.3        1 MOL1        -0.5486
     126    H60     25.824222   13.788035   19.423348 H          1 MOL1         0.3769
     127    C1      16.437559   18.664732   25.353780 C.2        1 MOL1         0.6173
     128    O1      15.629578   17.839248   25.732385 O.co2      1 MOL1        -0.6755
     129    O2      16.186904   19.857010   25.317970 O.co2      1 MOL1        -0.6755
     130    C2      17.645338   18.155641   24.649538 C.2        1 MOL1        -0.1504
     131    H1      17.717968   17.075813   24.544366 H          1 MOL1         0.0814
     132    C3      18.565607   18.966638   24.084152 C.2        1 MOL1        -0.1394
     133    H2      18.491789   20.044426   24.195613 H          1 MOL1         0.0817
     134    C4      19.702280   18.489376   23.212344 C.3        1 MOL1        -0.1849
     135    H3      19.711300   17.392825   23.164037 H          1 MOL1         0.0736
     136    H4      20.661150   18.801942   23.646659 H          1 MOL1         0.0736
     137    C5      19.551662   19.072084   21.791631 C.3        1 MOL1        -0.1866
     138    H5      18.606157   18.726085   21.353670 H          1 MOL1         0.0738
     139    H6      19.490108   20.166262   21.854798 H          1 MOL1         0.0738
     140    C6      20.727567   18.680061   20.877953 C.3        1 MOL1        -0.2879
     141    H7      21.673025   19.041676   21.299286 H          1 MOL1         0.0750
     142    H8      20.799807   17.593139   20.773781 H          1 MOL1         0.0750
     143    H9      20.607410   19.110786   19.876356 H          1 MOL1         0.0750
@<TRIPOS>BOND
    1     1     2    1
    2     1     3    1
    3     1     4    1
    4     4     5    1
    5     4     6    1
    6     6     7    1
    7     4     8    1
    8     8     9    1
    9     8    10    1
   10    10    11    1
   11     8    12    1
   12    12    13    1
   13    12    14    1
   14    14    15    1
   15     1    16    1
   16    14    16    1
   17    14    17    1
   18    17    18    1
   19    17    19    1
   20    17    20    1
   21    20    21    1
   22    22    23    1
   23    22    24    1
   24    22    25    1
   25    25    26    1
   26    25    27    1
   27    27    28    1
   28    25    29    1
   29    29    30    1
   30    29    31    1
   31    31    32    1
   32     3    33    1
   33    29    33    1
   34    33    34    1
   35    33    35    1
   36    35    36    1
   37    22    37    1
   38    35    37    1
   39    35    38    1
   40    38    39    1
   41    38    40    1
   42    38    41    1
   43    41    42    1
   44    43    44    1
   45    43    45    1
   46    43    46    1
   47    46    47    1
   48    46    48    1
   49    48    49    1
   50    46    50    1
   51    50    51    1
   52    50    52    1
   53    52    53    1
   54    24    54    1
   55    50    54    1
   56    54    55    1
   57    54    56    1
   58    56    57    1
   59    43    58    1
   60    56    58    1
   61    56    59    1
   62    59    60    1
   63    59    61    1
   64    59    62    1
   65    62    63    1
   66    64    65    1
   67    64    66    1
   68    64    67    1
   69    67    68    1
   70    67    69    1
   71    69    70    1
   72    67    71    1
   73    71    72    1
   74    71    73    1
   75    73    74    1
   76    45    75    1
   77    71    75    1
   78    75    76    1
   79    75    77    1
   80    77    78    1
   81    64    79    1
   82    77    79    1
   83    77    80    1
   84    80    81    1
   85    80    82    1
   86    80    83    1
   87    83    84    1
   88    85    86    1
   89    85    87    1
   90    85    88    1
   91    88    89    1
   92    88    90    1
   93    90    91    1
   94    88    92    1
   95    92    93    1
   96    92    94    1
   97    94    95    1
   98    66    96    1
   99    92    96    1
  100    96    97    1
  101    96    98    1
  102    98    99    1
  103    85   100    1
  104    98   100    1
  105    98   101    1
  106   101   102    1
  107   101   103    1
  108   101   104    1
  109   104   105    1
  110   106   107    1
  111    12   108    1
  112   106   108    1
  113   106   109    1
  114   109   110    1
  115   109   111    1
  116   111   112    1
  117   109   113    1
  118   113   114    1
  119   113   115    1
  120   115   116    1
  121    87   117    1
  122   113   117    1
  123   117   118    1
  124   117   119    1
  125   119   120    1
  126   106   121    1
  127   119   121    1
  128   119   122    1
  129   122   123    1
  130   122   124    1
  131   122   125    1
  132   125   126    1
  133   127   128    1
  134   127   129    2
  135   127   130    1
  136   130   131    1
  137   130   132    2
  138   132   133    1
  139   132   134    1
  140   134   135    1
  141   134   136    1
  142   134   137    1
  143   137   138    1
  144   137   139    1
  145   137   140    1
  146   140   141    1
  147   140   142    1
  148   140   143    1
@<TRIPOS>SUBSTRUCTURE
       1 MOL1            1 RESIDUE      1      MOL     
       2 MOL1          143 RESIDUE      1      MOL     
@<SCITEGIC>MOL_PROPERTY
feprocess Rank
SciTegic.value.IntegerValue
35

@<SCITEGIC>MOL_PROPERTY
Conf_Id
SciTegic.value.IntegerValue
197

@<SCITEGIC>MOL_PROPERTY
Probability
SciTegic.value.DoubleValue
0.08

@<SCITEGIC>MOL_PROPERTY
G
SciTegic.value.DoubleValue
498.887

@<SCITEGIC>MOL_PROPERTY
E
SciTegic.value.DoubleValue
316.244

@<SCITEGIC>MOL_PROPERTY
-TS
SciTegic.value.DoubleValue
182.643

@<SCITEGIC>MOL_PROPERTY
U+W
SciTegic.value.DoubleValue
190.156

@<SCITEGIC>MOL_PROPERTY
U
SciTegic.value.DoubleValue
268.973

@<SCITEGIC>MOL_PROPERTY
W
SciTegic.value.DoubleValue
-78.817

@<SCITEGIC>MOL_PROPERTY
W(PB)
SciTegic.value.DoubleValue
-84.860

@<SCITEGIC>MOL_PROPERTY
W(SA)
SciTegic.value.DoubleValue
6.043

@<SCITEGIC>MOL_PROPERTY
Valence
SciTegic.value.DoubleValue
151.956

@<SCITEGIC>MOL_PROPERTY
Coulomb
SciTegic.value.DoubleValue
140.679

@<SCITEGIC>MOL_PROPERTY
VdW
SciTegic.value.DoubleValue
-23.663

@<SCITEGIC>MOL_PROPERTY
VdW6
SciTegic.value.DoubleValue
-180.377

@<SCITEGIC>MOL_PROPERTY
VdW12
SciTegic.value.DoubleValue
156.714

@<SCITEGIC>MOL_PROPERTY
Bond
SciTegic.value.DoubleValue
4.948

@<SCITEGIC>MOL_PROPERTY
Angle
SciTegic.value.DoubleValue
14.279

@<SCITEGIC>MOL_PROPERTY
Pdih
SciTegic.value.DoubleValue
132.594

@<SCITEGIC>MOL_PROPERTY
Idih
SciTegic.value.DoubleValue
0.135

@<SCITEGIC>MOL_PROPERTY
Tether
SciTegic.value.DoubleValue
0.000

@<TRIPOS>MOLECULE
CD_guest-s19_fast_vm2_rndm.mol2 : feprocess host+ligand conformer 36
         143         148           2
SMALL
USER_CHARGES
 
@<TRIPOS>ATOM
       1    C1      16.174821   15.123586   21.149087 C.3        1 MOL1         0.2972
       2    H1      15.111393   14.963981   20.929510 H          1 MOL1         0.0751
       3    O1      16.491209   16.522683   21.278571 O.3        1 MOL1        -0.3740
       4    C2      16.545036   14.445051   22.490299 C.3        1 MOL1         0.1003
       5    H2      16.362596   13.367942   22.382641 H          1 MOL1         0.0783
       6    O2      15.731841   14.962700   23.555556 O.3        1 MOL1        -0.5519
       7    H3      15.489891   15.889517   23.307241 H          1 MOL1         0.3769
       8    C3      18.045290   14.651687   22.803728 C.3        1 MOL1         0.1053
       9    H4      18.211840   15.721932   22.984704 H          1 MOL1         0.0783
      10    O3      18.402292   13.904864   23.971096 O.3        1 MOL1        -0.5519
      11    H5      17.681941   14.084032   24.616108 H          1 MOL1         0.3769
      12    C4      18.925981   14.220663   21.606101 C.3        1 MOL1         0.1018
      13    H6      18.926180   13.124503   21.545890 H          1 MOL1         0.0783
      14    C5      18.430484   14.812982   20.256743 C.3        1 MOL1         0.1043
      15    H7      18.602961   15.894189   20.280205 H          1 MOL1         0.0783
      16    O4      17.008324   14.565279   20.107456 O.3        1 MOL1        -0.3740
      17    C6      19.174326   14.281770   19.003407 C.3        1 MOL1         0.0138
      18    H8      20.036394   14.933084   18.810932 H          1 MOL1         0.0794
      19    H9      18.508014   14.372653   18.135150 H          1 MOL1         0.0794
      20    O5      19.624145   12.928788   19.139505 O.3        1 MOL1        -0.5486
      21    H10     20.431362   12.950644   19.703398 H          1 MOL1         0.3769
      22    C7      15.083040   20.324458   20.294723 C.3        1 MOL1         0.2972
      23    H11     14.512202   21.166554   19.883081 H          1 MOL1         0.0751
      24    O6      16.320724   20.766008   20.887591 O.3        1 MOL1        -0.3740
      25    C8      14.254440   19.550687   21.358034 C.3        1 MOL1         0.1003
      26    H12     13.355788   19.173145   20.853152 H          1 MOL1         0.0783
      27    O7      13.852710   20.397334   22.445723 O.3        1 MOL1        -0.5519
      28    H13     14.680647   20.744393   22.865252 H          1 MOL1         0.3769
      29    C9      15.048526   18.331077   21.887358 C.3        1 MOL1         0.1053
      30    H14     15.924104   18.702356   22.438876 H          1 MOL1         0.0783
      31    O8      14.218141   17.554386   22.757813 O.3        1 MOL1        -0.5519
      32    H15     13.773460   18.209507   23.340521 H          1 MOL1         0.3769
      33    C10     15.550029   17.451608   20.716446 C.3        1 MOL1         0.1018
      34    H16     14.687375   16.945399   20.263710 H          1 MOL1         0.0783
      35    C11     16.280476   18.294264   19.634846 C.3        1 MOL1         0.1043
      36    H17     17.201441   18.696580   20.074367 H          1 MOL1         0.0783
      37    O9      15.418925   19.391951   19.241506 O.3        1 MOL1        -0.3740
      38    C12     16.701146   17.508721   18.365845 C.3        1 MOL1         0.0138
      39    H18     17.704756   17.096844   18.530204 H          1 MOL1         0.0794
      40    H19     16.782353   18.215410   17.529257 H          1 MOL1         0.0794
      41    O10     15.799389   16.448253   18.028522 O.3        1 MOL1        -0.5486
      42    H20     16.016358   15.691763   18.620954 H          1 MOL1         0.3769
      43    C13     18.445239   24.086673   22.102631 C.3        1 MOL1         0.2972
      44    H21     18.807683   25.069593   22.429862 H          1 MOL1         0.0751
      45    O11     19.531046   23.200567   21.763512 O.3        1 MOL1        -0.3740
      46    C14     17.588123   23.430668   23.215514 C.3        1 MOL1         0.1003
      47    H22     16.710647   24.071859   23.370751 H          1 MOL1         0.0783
      48    O12     18.309591   23.324895   24.451841 O.3        1 MOL1        -0.5519
      49    H23     19.271651   23.403551   24.237952 H          1 MOL1         0.3769
      50    C15     17.082678   22.040818   22.768011 C.3        1 MOL1         0.1053
      51    H24     17.953017   21.378169   22.677736 H          1 MOL1         0.0783
      52    O13     16.188686   21.526884   23.760559 O.3        1 MOL1        -0.5519
      53    H25     16.650430   21.687431   24.614149 H          1 MOL1         0.3769
      54    C16     16.368551   22.114170   21.393289 C.3        1 MOL1         0.1018
      55    H26     15.364510   22.532451   21.543776 H          1 MOL1         0.0783
      56    C17     17.149143   22.966957   20.350259 C.3        1 MOL1         0.1043
      57    H27     18.024350   22.387391   20.028702 H          1 MOL1         0.0783
      58    O14     17.599116   24.214100   20.940606 O.3        1 MOL1        -0.3740
      59    C18     16.331016   23.296147   19.078600 C.3        1 MOL1         0.0138
      60    H28     16.218647   22.376277   18.488944 H          1 MOL1         0.0794
      61    H29     16.904989   24.006134   18.468136 H          1 MOL1         0.0794
      62    O15     15.039930   23.835756   19.388514 O.3        1 MOL1        -0.5486
      63    H30     14.616346   24.099795   18.542659 H          1 MOL1         0.3769
      64    C19     23.629825   22.803157   21.561170 C.3        1 MOL1         0.2972
      65    H31     24.715708   22.932581   21.470183 H          1 MOL1         0.0751
      66    O16     23.274104   21.407108   21.678664 O.3        1 MOL1        -0.3740
      67    C20     23.121180   23.581971   22.798517 C.3        1 MOL1         0.1003
      68    H32     23.288379   24.647973   22.597461 H          1 MOL1         0.0783
      69    O17     23.857498   23.225818   23.978062 O.3        1 MOL1        -0.5519
      70    H33     23.528239   22.341935   24.289192 H          1 MOL1         0.3769
      71    C21     21.598480   23.368881   22.963580 C.3        1 MOL1         0.1053
      72    H34     21.415395   22.297534   23.102281 H          1 MOL1         0.0783
      73    O18     21.109105   24.092995   24.097678 O.3        1 MOL1        -0.5519
      74    H35     21.495672   23.628833   24.887057 H          1 MOL1         0.3769
      75    C22     20.846392   23.785874   21.677161 C.3        1 MOL1         0.1018
      76    H36     20.810937   24.880819   21.605150 H          1 MOL1         0.0783
      77    C23     21.505486   23.201556   20.394532 C.3        1 MOL1         0.1043
      78    H37     21.262938   22.134408   20.361699 H          1 MOL1         0.0783
      79    O19     22.951648   23.352848   20.411494 O.3        1 MOL1        -0.3740
      80    C24     20.963327   23.838701   19.093606 C.3        1 MOL1         0.0138
      81    H38     19.903133   23.571794   18.990936 H          1 MOL1         0.0794
      82    H39     21.497021   23.402226   18.238751 H          1 MOL1         0.0794
      83    O20     21.106597   25.264551   19.094396 O.3        1 MOL1        -0.5486
      84    H40     20.769877   25.599134   18.235058 H          1 MOL1         0.3769
      85    C25     24.726907   17.610370   20.613201 C.3        1 MOL1         0.2972
      86    H41     25.316396   16.788267   20.187438 H          1 MOL1         0.0751
      87    O21     23.475349   17.137675   21.153627 O.3        1 MOL1        -0.3740
      88    C26     25.517367   18.347136   21.728076 C.3        1 MOL1         0.1003
      89    H42     26.421008   18.765187   21.266592 H          1 MOL1         0.0783
      90    O22     25.909548   17.431911   22.763197 O.3        1 MOL1        -0.5519
      91    H43     25.080046   17.110323   23.196487 H          1 MOL1         0.3769
      92    C27     24.677560   19.529775   22.282721 C.3        1 MOL1         0.1053
      93    H44     23.783224   19.112862   22.760811 H          1 MOL1         0.0783
      94    O23     25.420549   20.280377   23.247606 O.3        1 MOL1        -0.5519
      95    H45     24.744045   20.560563   23.917677 H          1 MOL1         0.3769
      96    C28     24.221626   20.464297   21.129698 C.3        1 MOL1         0.1018
      97    H46     25.109925   20.969419   20.728579 H          1 MOL1         0.0783
      98    C29     23.538858   19.658145   19.987222 C.3        1 MOL1         0.1043
      99    H47     22.602186   19.238088   20.373871 H          1 MOL1         0.0783
     100    O24     24.418245   18.577783   19.586800 O.3        1 MOL1        -0.3740
     101    C30     23.182732   20.472188   18.717017 C.3        1 MOL1         0.0138
     102    H48     22.183138   20.902867   18.844847 H          1 MOL1         0.0794
     103    H49     23.117297   19.778602   17.868176 H          1 MOL1         0.0794
     104    O25     24.124802   21.510998   18.426728 O.3        1 MOL1        -0.5486
     105    H50     23.912611   22.263045   19.028113 H          1 MOL1         0.3769
     106    C31     21.280697   13.798024   22.100213 C.3        1 MOL1         0.2972
     107    H51     20.878922   12.807653   22.349997 H          1 MOL1         0.0751
     108    O26     20.235207   14.755855   21.855125 O.3        1 MOL1        -0.3740
     109    C32     22.144626   14.327967   23.267714 C.3        1 MOL1         0.1003
     110    H52     22.992954   13.642425   23.392126 H          1 MOL1         0.0783
     111    O27     21.380164   14.364228   24.483726 O.3        1 MOL1        -0.5519
     112    H53     20.429778   14.452837   24.224332 H          1 MOL1         0.3769
     113    C33     22.705513   15.729879   22.936354 C.3        1 MOL1         0.1053
     114    H54     21.863311   16.432011   22.908537 H          1 MOL1         0.0783
     115    O28     23.617507   16.122531   23.966114 O.3        1 MOL1        -0.5519
     116    H55     23.135045   15.956690   24.806462 H          1 MOL1         0.3769
     117    C34     23.411209   15.754698   21.554017 C.3        1 MOL1         0.1018
     118    H56     24.409459   15.310330   21.663122 H          1 MOL1         0.0783
     119    C35     22.611333   15.010963   20.443583 C.3        1 MOL1         0.1043
     120    H57     21.760275   15.647130   20.168274 H          1 MOL1         0.0783
     121    O29     22.110014   13.735387   20.922536 O.3        1 MOL1        -0.3740
     122    C36     23.426254   14.761779   19.152062 C.3        1 MOL1         0.0138
     123    H58     23.583313   15.724814   18.647628 H          1 MOL1         0.0794
     124    H59     22.829378   14.133964   18.476880 H          1 MOL1         0.0794
     125    O30     24.689879   14.142143   19.421513 O.3        1 MOL1        -0.5486
     126    H60     25.113444   13.940900   18.558603 H          1 MOL1         0.3769
     127    C1      21.961357   20.965862   25.252786 C.2        1 MOL1         0.6173
     128    O1      21.761394   21.963049   25.919410 O.co2      1 MOL1        -0.6755
     129    O2      23.075293   20.655673   24.868563 O.co2      1 MOL1        -0.6755
     130    C2      20.765882   20.254799   24.721067 C.2        1 MOL1        -0.1504
     131    H1      19.802931   20.650174   25.035760 H          1 MOL1         0.0814
     132    C3      20.827104   19.210054   23.865133 C.2        1 MOL1        -0.1394
     133    H2      21.786361   18.813819   23.541131 H          1 MOL1         0.0817
     134    C4      19.608911   18.530963   23.274685 C.3        1 MOL1        -0.1849
     135    H3      18.704396   19.121839   23.471750 H          1 MOL1         0.0736
     136    H4      19.462041   17.564279   23.772807 H          1 MOL1         0.0736
     137    C5      19.746138   18.301080   21.753301 C.3        1 MOL1        -0.1866
     138    H5      20.623016   17.675298   21.547052 H          1 MOL1         0.0738
     139    H6      18.871603   17.743922   21.404334 H          1 MOL1         0.0738
     140    C6      19.858162   19.614675   20.954397 C.3        1 MOL1        -0.2879
     141    H7      20.698862   20.216199   21.318514 H          1 MOL1         0.0750
     142    H8      20.014580   19.409925   19.888214 H          1 MOL1         0.0750
     143    H9      18.946987   20.212899   21.054110 H          1 MOL1         0.0750
@<TRIPOS>BOND
    1     1     2    1
    2     1     3    1
    3     1     4    1
    4     4     5    1
    5     4     6    1
    6     6     7    1
    7     4     8    1
    8     8     9    1
    9     8    10    1
   10    10    11    1
   11     8    12    1
   12    12    13    1
   13    12    14    1
   14    14    15    1
   15     1    16    1
   16    14    16    1
   17    14    17    1
   18    17    18    1
   19    17    19    1
   20    17    20    1
   21    20    21    1
   22    22    23    1
   23    22    24    1
   24    22    25    1
   25    25    26    1
   26    25    27    1
   27    27    28    1
   28    25    29    1
   29    29    30    1
   30    29    31    1
   31    31    32    1
   32     3    33    1
   33    29    33    1
   34    33    34    1
   35    33    35    1
   36    35    36    1
   37    22    37    1
   38    35    37    1
   39    35    38    1
   40    38    39    1
   41    38    40    1
   42    38    41    1
   43    41    42    1
   44    43    44    1
   45    43    45    1
   46    43    46    1
   47    46    47    1
   48    46    48    1
   49    48    49    1
   50    46    50    1
   51    50    51    1
   52    50    52    1
   53    52    53    1
   54    24    54    1
   55    50    54    1
   56    54    55    1
   57    54    56    1
   58    56    57    1
   59    43    58    1
   60    56    58    1
   61    56    59    1
   62    59    60    1
   63    59    61    1
   64    59    62    1
   65    62    63    1
   66    64    65    1
   67    64    66    1
   68    64    67    1
   69    67    68    1
   70    67    69    1
   71    69    70    1
   72    67    71    1
   73    71    72    1
   74    71    73    1
   75    73    74    1
   76    45    75    1
   77    71    75    1
   78    75    76    1
   79    75    77    1
   80    77    78    1
   81    64    79    1
   82    77    79    1
   83    77    80    1
   84    80    81    1
   85    80    82    1
   86    80    83    1
   87    83    84    1
   88    85    86    1
   89    85    87    1
   90    85    88    1
   91    88    89    1
   92    88    90    1
   93    90    91    1
   94    88    92    1
   95    92    93    1
   96    92    94    1
   97    94    95    1
   98    66    96    1
   99    92    96    1
  100    96    97    1
  101    96    98    1
  102    98    99    1
  103    85   100    1
  104    98   100    1
  105    98   101    1
  106   101   102    1
  107   101   103    1
  108   101   104    1
  109   104   105    1
  110   106   107    1
  111    12   108    1
  112   106   108    1
  113   106   109    1
  114   109   110    1
  115   109   111    1
  116   111   112    1
  117   109   113    1
  118   113   114    1
  119   113   115    1
  120   115   116    1
  121    87   117    1
  122   113   117    1
  123   117   118    1
  124   117   119    1
  125   119   120    1
  126   106   121    1
  127   119   121    1
  128   119   122    1
  129   122   123    1
  130   122   124    1
  131   122   125    1
  132   125   126    1
  133   127   128    1
  134   127   129    2
  135   127   130    1
  136   130   131    1
  137   130   132    2
  138   132   133    1
  139   132   134    1
  140   134   135    1
  141   134   136    1
  142   134   137    1
  143   137   138    1
  144   137   139    1
  145   137   140    1
  146   140   141    1
  147   140   142    1
  148   140   143    1
@<TRIPOS>SUBSTRUCTURE
       1 MOL1            1 RESIDUE      1      MOL     
       2 MOL1          143 RESIDUE      1      MOL     
@<SCITEGIC>MOL_PROPERTY
feprocess Rank
SciTegic.value.IntegerValue
36

@<SCITEGIC>MOL_PROPERTY
Conf_Id
SciTegic.value.IntegerValue
712

@<SCITEGIC>MOL_PROPERTY
Probability
SciTegic.value.DoubleValue
0.07

@<SCITEGIC>MOL_PROPERTY
G
SciTegic.value.DoubleValue
498.966

@<SCITEGIC>MOL_PROPERTY
E
SciTegic.value.DoubleValue
315.052

@<SCITEGIC>MOL_PROPERTY
-TS
SciTegic.value.DoubleValue
183.913

@<SCITEGIC>MOL_PROPERTY
U+W
SciTegic.value.DoubleValue
188.964

@<SCITEGIC>MOL_PROPERTY
U
SciTegic.value.DoubleValue
266.844

@<SCITEGIC>MOL_PROPERTY
W
SciTegic.value.DoubleValue
-77.880

@<SCITEGIC>MOL_PROPERTY
W(PB)
SciTegic.value.DoubleValue
-83.909

@<SCITEGIC>MOL_PROPERTY
W(SA)
SciTegic.value.DoubleValue
6.030

@<SCITEGIC>MOL_PROPERTY
Valence
SciTegic.value.DoubleValue
151.764

@<SCITEGIC>MOL_PROPERTY
Coulomb
SciTegic.value.DoubleValue
139.211

@<SCITEGIC>MOL_PROPERTY
VdW
SciTegic.value.DoubleValue
-24.131

@<SCITEGIC>MOL_PROPERTY
VdW6
SciTegic.value.DoubleValue
-183.675

@<SCITEGIC>MOL_PROPERTY
VdW12
SciTegic.value.DoubleValue
159.543

@<SCITEGIC>MOL_PROPERTY
Bond
SciTegic.value.DoubleValue
5.070

@<SCITEGIC>MOL_PROPERTY
Angle
SciTegic.value.DoubleValue
14.627

@<SCITEGIC>MOL_PROPERTY
Pdih
SciTegic.value.DoubleValue
131.995

@<SCITEGIC>MOL_PROPERTY
Idih
SciTegic.value.DoubleValue
0.073

@<SCITEGIC>MOL_PROPERTY
Tether
SciTegic.value.DoubleValue
0.000

@<TRIPOS>MOLECULE
CD_guest-s19_fast_vm2_rndm.mol2 : feprocess host+ligand conformer 37
         143         148           2
SMALL
USER_CHARGES
 
@<TRIPOS>ATOM
       1    C1      16.233631   15.293158   20.883381 C.3        1 MOL1         0.2972
       2    H1      15.227364   15.019043   20.542726 H          1 MOL1         0.0751
       3    O1      16.311955   16.685062   21.240256 O.3        1 MOL1        -0.3740
       4    C2      16.599927   14.479678   22.152158 C.3        1 MOL1         0.1003
       5    H2      16.522619   13.414987   21.896208 H          1 MOL1         0.0783
       6    O2      15.684301   14.779360   23.218421 O.3        1 MOL1        -0.5519
       7    H3      15.452844   15.737444   23.135383 H          1 MOL1         0.3769
       8    C3      18.057274   14.760098   22.596665 C.3        1 MOL1         0.1053
       9    H4      18.122653   15.803020   22.937275 H          1 MOL1         0.0783
      10    O3      18.409854   13.874855   23.664898 O.3        1 MOL1        -0.5519
      11    H5      17.642477   13.899420   24.279444 H          1 MOL1         0.3769
      12    C4      19.027764   14.577187   21.405731 C.3        1 MOL1         0.1018
      13    H6      19.048487   13.515929   21.123830 H          1 MOL1         0.0783
      14    C5      18.572160   15.407289   20.178308 C.3        1 MOL1         0.1043
      15    H7      18.602526   16.470369   20.447311 H          1 MOL1         0.0783
      16    O4      17.211891   15.027971   19.852846 O.3        1 MOL1        -0.3740
      17    C6      19.457754   15.229555   18.917874 C.3        1 MOL1         0.0138
      18    H8      20.274311   15.961005   18.963758 H          1 MOL1         0.0794
      19    H9      18.859858   15.477994   18.031084 H          1 MOL1         0.0794
      20    O5      20.001622   13.909417   18.790579 O.3        1 MOL1        -0.5486
      21    H10     20.678090   13.801621   19.499257 H          1 MOL1         0.3769
      22    C7      14.699626   20.409988   20.499324 C.3        1 MOL1         0.2972
      23    H11     14.115392   21.290108   20.201257 H          1 MOL1         0.0751
      24    O6      16.021676   20.774995   20.946816 O.3        1 MOL1        -0.3740
      25    C8      13.981896   19.602155   21.612434 C.3        1 MOL1         0.1003
      26    H12     13.046433   19.220339   21.183088 H          1 MOL1         0.0783
      27    O7      13.667649   20.416187   22.751619 O.3        1 MOL1        -0.5519
      28    H13     14.526512   20.748210   23.116616 H          1 MOL1         0.3769
      29    C9      14.846919   18.386592   22.024794 C.3        1 MOL1         0.1053
      30    H14     15.769865   18.762910   22.488199 H          1 MOL1         0.0783
      31    O8      14.130496   17.578046   22.964985 O.3        1 MOL1        -0.5519
      32    H15     13.748399   18.212134   23.611553 H          1 MOL1         0.3769
      33    C10     15.235204   17.529973   20.792870 C.3        1 MOL1         0.1018
      34    H16     14.352207   16.950491   20.494173 H          1 MOL1         0.0783
      35    C11     15.738675   18.384255   19.590619 C.3        1 MOL1         0.1043
      36    H17     16.739558   18.759578   19.832184 H          1 MOL1         0.0783
      37    O9      14.853720   19.513877   19.377844 O.3        1 MOL1        -0.3740
      38    C12     15.866866   17.611756   18.254450 C.3        1 MOL1         0.0138
      39    H18     16.789208   17.017874   18.277216 H          1 MOL1         0.0794
      40    H19     15.980707   18.343074   17.443250 H          1 MOL1         0.0794
      41    O10     14.745048   16.760745   17.991038 O.3        1 MOL1        -0.5486
      42    H20     14.985724   15.859637   18.295913 H          1 MOL1         0.3769
      43    C13     18.486154   23.826205   22.171613 C.3        1 MOL1         0.2972
      44    H21     18.954569   24.756752   22.517825 H          1 MOL1         0.0751
      45    O11     19.468014   22.864227   21.743932 O.3        1 MOL1        -0.3740
      46    C14     17.653544   23.197444   23.312778 C.3        1 MOL1         0.1003
      47    H22     16.862249   23.911981   23.574264 H          1 MOL1         0.0783
      48    O12     18.471610   22.953094   24.468691 O.3        1 MOL1        -0.5519
      49    H23     19.403483   23.155607   24.208436 H          1 MOL1         0.3769
      50    C15     16.981941   21.888122   22.840823 C.3        1 MOL1         0.1053
      51    H24     17.770195   21.147564   22.660573 H          1 MOL1         0.0783
      52    O13     16.114757   21.416929   23.875892 O.3        1 MOL1        -0.5519
      53    H25     16.654932   21.480990   24.695801 H          1 MOL1         0.3769
      54    C16     16.197221   22.086338   21.517113 C.3        1 MOL1         0.1018
      55    H26     15.238913   22.573214   21.741404 H          1 MOL1         0.0783
      56    C17     16.987752   22.913233   20.461224 C.3        1 MOL1         0.1043
      57    H27     17.776923   22.266514   20.058214 H          1 MOL1         0.0783
      58    O14     17.602328   24.082996   21.060797 O.3        1 MOL1        -0.3740
      59    C18     16.122483   23.371524   19.263221 C.3        1 MOL1         0.0138
      60    H28     15.868206   22.489340   18.660124 H          1 MOL1         0.0794
      61    H29     16.724361   24.036943   18.629718 H          1 MOL1         0.0794
      62    O15     14.923514   24.033527   19.684905 O.3        1 MOL1        -0.5486
      63    H30     14.466343   24.363032   18.880506 H          1 MOL1         0.3769
      64    C19     23.608475   22.695594   21.164660 C.3        1 MOL1         0.2972
      65    H31     24.645872   22.954977   20.919134 H          1 MOL1         0.0751
      66    O16     23.470081   21.302453   21.497118 O.3        1 MOL1        -0.3740
      67    C20     23.138231   23.502776   22.401258 C.3        1 MOL1         0.1003
      68    H32     23.212554   24.568805   22.150343 H          1 MOL1         0.0783
      69    O17     23.976658   23.224433   23.533172 O.3        1 MOL1        -0.5519
      70    H33     24.197509   22.260976   23.502674 H          1 MOL1         0.3769
      71    C21     21.658263   23.189622   22.729673 C.3        1 MOL1         0.1053
      72    H34     21.588334   22.136475   23.028713 H          1 MOL1         0.0783
      73    O18     21.216656   24.030992   23.800087 O.3        1 MOL1        -0.5519
      74    H35     21.944343   23.997660   24.461936 H          1 MOL1         0.3769
      75    C22     20.777276   23.390904   21.472740 C.3        1 MOL1         0.1018
      76    H36     20.741482   24.460658   21.227648 H          1 MOL1         0.0783
      77    C23     21.340972   22.613625   20.254573 C.3        1 MOL1         0.1043
      78    H37     21.284984   21.540629   20.475059 H          1 MOL1         0.0783
      79    O19     22.727209   22.991505   20.056337 O.3        1 MOL1        -0.3740
      80    C24     20.552784   22.841930   18.938648 C.3        1 MOL1         0.0138
      81    H38     19.738391   22.107117   18.895435 H          1 MOL1         0.0794
      82    H39     21.216235   22.632925   18.089050 H          1 MOL1         0.0794
      83    O20     20.008396   24.163592   18.828406 O.3        1 MOL1        -0.5486
      84    H40     19.314112   24.251283   19.520802 H          1 MOL1         0.3769
      85    C25     25.152578   17.558508   21.000315 C.3        1 MOL1         0.2972
      86    H41     25.777514   16.687905   20.763077 H          1 MOL1         0.0751
      87    O21     23.822557   17.169746   21.401863 O.3        1 MOL1        -0.3740
      88    C26     25.779368   18.406323   22.137946 C.3        1 MOL1         0.1003
      89    H42     26.742356   18.785670   21.772984 H          1 MOL1         0.0783
      90    O22     26.009922   17.604723   23.306634 O.3        1 MOL1        -0.5519
      91    H43     25.133529   17.255319   23.607500 H          1 MOL1         0.3769
      92    C27     24.873543   19.627056   22.446372 C.3        1 MOL1         0.1053
      93    H44     23.921064   19.252838   22.838798 H          1 MOL1         0.0783
      94    O23     25.480424   20.485862   23.418650 O.3        1 MOL1        -0.5519
      95    H45     25.235162   20.091723   24.297889 H          1 MOL1         0.3769
      96    C28     24.567222   20.435046   21.160347 C.3        1 MOL1         0.1018
      97    H46     25.469993   20.993867   20.882317 H          1 MOL1         0.0783
      98    C29     24.116784   19.527614   19.979416 C.3        1 MOL1         0.1043
      99    H47     23.117311   19.138321   20.207597 H          1 MOL1         0.0783
     100    O24     25.033458   18.413802   19.842348 O.3        1 MOL1        -0.3740
     101    C30     24.008633   20.248524   18.612802 C.3        1 MOL1         0.0138
     102    H48     23.061960   20.803113   18.583331 H          1 MOL1         0.0794
     103    H49     23.956868   19.487149   17.823257 H          1 MOL1         0.0794
     104    O25     25.099845   21.141503   18.361872 O.3        1 MOL1        -0.5486
     105    H50     24.839435   22.019786   18.714025 H          1 MOL1         0.3769
     106    C31     21.289750   14.013050   22.093654 C.3        1 MOL1         0.2972
     107    H51     20.803323   13.047788   22.285695 H          1 MOL1         0.0751
     108    O26     20.324882   15.046891   21.813331 O.3        1 MOL1        -0.3740
     109    C32     22.117187   14.433512   23.330213 C.3        1 MOL1         0.1003
     110    H52     22.891230   13.670892   23.486280 H          1 MOL1         0.0783
     111    O27     21.279819   14.505844   24.495531 O.3        1 MOL1        -0.5519
     112    H53     20.345064   14.539824   24.174626 H          1 MOL1         0.3769
     113    C33     22.820804   15.785812   23.081114 C.3        1 MOL1         0.1053
     114    H54     22.045944   16.558332   23.021223 H          1 MOL1         0.0783
     115    O28     23.696703   16.068758   24.175273 O.3        1 MOL1        -0.5519
     116    H55     23.144122   15.961012   24.980843 H          1 MOL1         0.3769
     117    C34     23.615303   15.787691   21.749389 C.3        1 MOL1         0.1018
     118    H56     24.561431   15.252232   21.904017 H          1 MOL1         0.0783
     119    C35     22.824390   15.158321   20.567094 C.3        1 MOL1         0.1043
     120    H57     22.053233   15.879607   20.270015 H          1 MOL1         0.0783
     121    O29     22.181962   13.919141   20.964315 O.3        1 MOL1        -0.3740
     122    C36     23.695898   14.882783   19.318638 C.3        1 MOL1         0.0138
     123    H58     23.979514   15.845650   18.872379 H          1 MOL1         0.0794
     124    H59     23.088407   14.346315   18.577327 H          1 MOL1         0.0794
     125    O30     24.872742   14.130225   19.638312 O.3        1 MOL1        -0.5486
     126    H60     25.339062   13.934551   18.796440 H          1 MOL1         0.3769
     127    C1      23.090054   20.403484   25.862774 C.2        1 MOL1         0.6173
     128    O1      23.948830   19.577052   25.613237 O.co2      1 MOL1        -0.6755
     129    O2      23.239581   21.286674   26.684252 O.co2      1 MOL1        -0.6755
     130    C2      21.812945   20.391941   25.098052 C.2        1 MOL1        -0.1504
     131    H1      21.127902   21.209335   25.310889 H          1 MOL1         0.0814
     132    C3      21.492180   19.455915   24.176319 C.2        1 MOL1        -0.1394
     133    H2      22.166398   18.626868   23.973350 H          1 MOL1         0.0817
     134    C4      20.218108   19.486182   23.359612 C.3        1 MOL1        -0.1849
     135    H3      19.833339   20.512566   23.323551 H          1 MOL1         0.0736
     136    H4      19.445062   18.875813   23.844595 H          1 MOL1         0.0736
     137    C5      20.456658   18.980287   21.921768 C.3        1 MOL1        -0.1866
     138    H5      21.318193   19.502896   21.491727 H          1 MOL1         0.0738
     139    H6      20.707954   17.913191   21.941095 H          1 MOL1         0.0738
     140    C6      19.224895   19.193395   21.023438 C.3        1 MOL1        -0.2879
     141    H7      19.006788   20.261076   20.904090 H          1 MOL1         0.0750
     142    H8      19.393108   18.769450   20.025829 H          1 MOL1         0.0750
     143    H9      18.342801   18.710421   21.462403 H          1 MOL1         0.0750
@<TRIPOS>BOND
    1     1     2    1
    2     1     3    1
    3     1     4    1
    4     4     5    1
    5     4     6    1
    6     6     7    1
    7     4     8    1
    8     8     9    1
    9     8    10    1
   10    10    11    1
   11     8    12    1
   12    12    13    1
   13    12    14    1
   14    14    15    1
   15     1    16    1
   16    14    16    1
   17    14    17    1
   18    17    18    1
   19    17    19    1
   20    17    20    1
   21    20    21    1
   22    22    23    1
   23    22    24    1
   24    22    25    1
   25    25    26    1
   26    25    27    1
   27    27    28    1
   28    25    29    1
   29    29    30    1
   30    29    31    1
   31    31    32    1
   32     3    33    1
   33    29    33    1
   34    33    34    1
   35    33    35    1
   36    35    36    1
   37    22    37    1
   38    35    37    1
   39    35    38    1
   40    38    39    1
   41    38    40    1
   42    38    41    1
   43    41    42    1
   44    43    44    1
   45    43    45    1
   46    43    46    1
   47    46    47    1
   48    46    48    1
   49    48    49    1
   50    46    50    1
   51    50    51    1
   52    50    52    1
   53    52    53    1
   54    24    54    1
   55    50    54    1
   56    54    55    1
   57    54    56    1
   58    56    57    1
   59    43    58    1
   60    56    58    1
   61    56    59    1
   62    59    60    1
   63    59    61    1
   64    59    62    1
   65    62    63    1
   66    64    65    1
   67    64    66    1
   68    64    67    1
   69    67    68    1
   70    67    69    1
   71    69    70    1
   72    67    71    1
   73    71    72    1
   74    71    73    1
   75    73    74    1
   76    45    75    1
   77    71    75    1
   78    75    76    1
   79    75    77    1
   80    77    78    1
   81    64    79    1
   82    77    79    1
   83    77    80    1
   84    80    81    1
   85    80    82    1
   86    80    83    1
   87    83    84    1
   88    85    86    1
   89    85    87    1
   90    85    88    1
   91    88    89    1
   92    88    90    1
   93    90    91    1
   94    88    92    1
   95    92    93    1
   96    92    94    1
   97    94    95    1
   98    66    96    1
   99    92    96    1
  100    96    97    1
  101    96    98    1
  102    98    99    1
  103    85   100    1
  104    98   100    1
  105    98   101    1
  106   101   102    1
  107   101   103    1
  108   101   104    1
  109   104   105    1
  110   106   107    1
  111    12   108    1
  112   106   108    1
  113   106   109    1
  114   109   110    1
  115   109   111    1
  116   111   112    1
  117   109   113    1
  118   113   114    1
  119   113   115    1
  120   115   116    1
  121    87   117    1
  122   113   117    1
  123   117   118    1
  124   117   119    1
  125   119   120    1
  126   106   121    1
  127   119   121    1
  128   119   122    1
  129   122   123    1
  130   122   124    1
  131   122   125    1
  132   125   126    1
  133   127   128    1
  134   127   129    2
  135   127   130    1
  136   130   131    1
  137   130   132    2
  138   132   133    1
  139   132   134    1
  140   134   135    1
  141   134   136    1
  142   134   137    1
  143   137   138    1
  144   137   139    1
  145   137   140    1
  146   140   141    1
  147   140   142    1
  148   140   143    1
@<TRIPOS>SUBSTRUCTURE
       1 MOL1            1 RESIDUE      1      MOL     
       2 MOL1          143 RESIDUE      1      MOL     
@<SCITEGIC>MOL_PROPERTY
feprocess Rank
SciTegic.value.IntegerValue
37

@<SCITEGIC>MOL_PROPERTY
Conf_Id
SciTegic.value.IntegerValue
754

@<SCITEGIC>MOL_PROPERTY
Probability
SciTegic.value.DoubleValue
0.06

@<SCITEGIC>MOL_PROPERTY
G
SciTegic.value.DoubleValue
498.989

@<SCITEGIC>MOL_PROPERTY
E
SciTegic.value.DoubleValue
319.357

@<SCITEGIC>MOL_PROPERTY
-TS
SciTegic.value.DoubleValue
179.632

@<SCITEGIC>MOL_PROPERTY
U+W
SciTegic.value.DoubleValue
193.269

@<SCITEGIC>MOL_PROPERTY
U
SciTegic.value.DoubleValue
278.328

@<SCITEGIC>MOL_PROPERTY
W
SciTegic.value.DoubleValue
-85.059

@<SCITEGIC>MOL_PROPERTY
W(PB)
SciTegic.value.DoubleValue
-91.122

@<SCITEGIC>MOL_PROPERTY
W(SA)
SciTegic.value.DoubleValue
6.062

@<SCITEGIC>MOL_PROPERTY
Valence
SciTegic.value.DoubleValue
150.649

@<SCITEGIC>MOL_PROPERTY
Coulomb
SciTegic.value.DoubleValue
152.956

@<SCITEGIC>MOL_PROPERTY
VdW
SciTegic.value.DoubleValue
-25.277

@<SCITEGIC>MOL_PROPERTY
VdW6
SciTegic.value.DoubleValue
-176.509

@<SCITEGIC>MOL_PROPERTY
VdW12
SciTegic.value.DoubleValue
151.232

@<SCITEGIC>MOL_PROPERTY
Bond
SciTegic.value.DoubleValue
4.600

@<SCITEGIC>MOL_PROPERTY
Angle
SciTegic.value.DoubleValue
13.593

@<SCITEGIC>MOL_PROPERTY
Pdih
SciTegic.value.DoubleValue
132.449

@<SCITEGIC>MOL_PROPERTY
Idih
SciTegic.value.DoubleValue
0.007

@<SCITEGIC>MOL_PROPERTY
Tether
SciTegic.value.DoubleValue
0.000

@<TRIPOS>MOLECULE
CD_guest-s19_fast_vm2_rndm.mol2 : feprocess host+ligand conformer 38
         143         148           2
SMALL
USER_CHARGES
 
@<TRIPOS>ATOM
       1    C1      16.138025   15.140495   21.170651 C.3        1 MOL1         0.2972
       2    H1      15.093581   14.909500   20.925825 H          1 MOL1         0.0751
       3    O1      16.345195   16.555201   21.336569 O.3        1 MOL1        -0.3740
       4    C2      16.524539   14.470341   22.512523 C.3        1 MOL1         0.1003
       5    H2      16.389733   13.387090   22.396609 H          1 MOL1         0.0783
       6    O2      15.674610   14.947732   23.568035 O.3        1 MOL1        -0.5519
       7    H3      15.461354   15.889554   23.355808 H          1 MOL1         0.3769
       8    C3      18.010781   14.737980   22.852206 C.3        1 MOL1         0.1053
       9    H4      18.131564   15.811735   23.052812 H          1 MOL1         0.0783
      10    O3      18.383409   13.985117   24.011410 O.3        1 MOL1        -0.5519
      11    H5      17.655461   14.132087   24.655627 H          1 MOL1         0.3769
      12    C4      18.923870   14.362896   21.660784 C.3        1 MOL1         0.1018
      13    H6      18.939662   13.269477   21.562200 H          1 MOL1         0.0783
      14    C5      18.428937   14.989075   20.326946 C.3        1 MOL1         0.1043
      15    H7      18.535091   16.077105   20.398859 H          1 MOL1         0.0783
      16    O4      17.028612   14.660706   20.138430 O.3        1 MOL1        -0.3740
      17    C6      19.218537   14.549131   19.066616 C.3        1 MOL1         0.0138
      18    H8      20.055080   15.243827   18.920944 H          1 MOL1         0.0794
      19    H9      18.565307   14.653345   18.190175 H          1 MOL1         0.0794
      20    O5      19.717862   13.209283   19.148015 O.3        1 MOL1        -0.5486
      21    H10     20.511125   13.233297   19.732660 H          1 MOL1         0.3769
      22    C7      14.977251   20.296287   20.184995 C.3        1 MOL1         0.2972
      23    H11     14.432216   21.151167   19.764731 H          1 MOL1         0.0751
      24    O6      16.273409   20.694260   20.683757 O.3        1 MOL1        -0.3740
      25    C8      14.156133   19.603776   21.308102 C.3        1 MOL1         0.1003
      26    H12     13.240105   19.217557   20.842371 H          1 MOL1         0.0783
      27    O7      13.787659   20.512725   22.355272 O.3        1 MOL1        -0.5519
      28    H13     14.629369   20.797502   22.792467 H          1 MOL1         0.3769
      29    C9      14.939998   18.397884   21.879166 C.3        1 MOL1         0.1053
      30    H14     15.847948   18.776858   22.369260 H          1 MOL1         0.0783
      31    O8      14.129756   17.698736   22.831060 O.3        1 MOL1        -0.5519
      32    H15     13.732779   18.398670   23.395349 H          1 MOL1         0.3769
      33    C10     15.366412   17.430040   20.748520 C.3        1 MOL1         0.1018
      34    H16     14.474895   16.886554   20.410007 H          1 MOL1         0.0783
      35    C11     16.020824   18.171894   19.547212 C.3        1 MOL1         0.1043
      36    H17     17.002220   18.540609   19.869385 H          1 MOL1         0.0783
      37    O9      15.195202   19.300457   19.161591 O.3        1 MOL1        -0.3740
      38    C12     16.256025   17.293009   18.292505 C.3        1 MOL1         0.0138
      39    H18     17.190084   16.734809   18.424626 H          1 MOL1         0.0794
      40    H19     16.400765   17.954339   17.427863 H          1 MOL1         0.0794
      41    O10     15.186352   16.375991   18.037090 O.3        1 MOL1        -0.5486
      42    H20     15.385757   15.558609   18.544343 H          1 MOL1         0.3769
      43    C13     18.467757   23.942466   22.073008 C.3        1 MOL1         0.2972
      44    H21     18.813848   24.913007   22.451026 H          1 MOL1         0.0751
      45    O11     19.568377   23.088534   21.701446 O.3        1 MOL1        -0.3740
      46    C14     17.597161   23.227686   23.138301 C.3        1 MOL1         0.1003
      47    H22     16.705670   23.848979   23.294993 H          1 MOL1         0.0783
      48    O12     18.278035   23.086303   24.393137 O.3        1 MOL1        -0.5519
      49    H23     19.248955   23.082680   24.209308 H          1 MOL1         0.3769
      50    C15     17.119948   21.853812   22.618512 C.3        1 MOL1         0.1053
      51    H24     17.999585   21.213609   22.467659 H          1 MOL1         0.0783
      52    O13     16.255409   21.270875   23.598189 O.3        1 MOL1        -0.5519
      53    H25     16.738283   21.386730   24.448260 H          1 MOL1         0.3769
      54    C16     16.385279   22.011075   21.262281 C.3        1 MOL1         0.1018
      55    H26     15.401601   22.462891   21.445884 H          1 MOL1         0.0783
      56    C17     17.187373   22.892572   20.260004 C.3        1 MOL1         0.1043
      57    H27     18.060542   22.316279   19.927368 H          1 MOL1         0.0783
      58    O14     17.642450   24.115700   20.900705 O.3        1 MOL1        -0.3740
      59    C18     16.382711   23.273516   18.994480 C.3        1 MOL1         0.0138
      60    H28     16.255106   22.372389   18.379399 H          1 MOL1         0.0794
      61    H29     16.972952   23.989105   18.406517 H          1 MOL1         0.0794
      62    O15     15.100636   23.828445   19.314805 O.3        1 MOL1        -0.5486
      63    H30     14.683799   24.119872   18.474663 H          1 MOL1         0.3769
      64    C19     23.702484   22.755941   21.759177 C.3        1 MOL1         0.2972
      65    H31     24.785316   22.935054   21.745646 H          1 MOL1         0.0751
      66    O16     23.411680   21.345086   21.753968 O.3        1 MOL1        -0.3740
      67    C20     23.086283   23.406969   23.023764 C.3        1 MOL1         0.1003
      68    H32     23.294191   24.482754   22.958044 H          1 MOL1         0.0783
      69    O17     23.684613   22.896795   24.225938 O.3        1 MOL1        -0.5519
      70    H33     23.439644   21.934113   24.304830 H          1 MOL1         0.3769
      71    C21     21.551666   23.228331   23.062646 C.3        1 MOL1         0.1053
      72    H34     21.334581   22.163960   23.202327 H          1 MOL1         0.0783
      73    O18     21.024451   23.984816   24.154625 O.3        1 MOL1        -0.5519
      74    H35     21.585653   23.743747   24.926194 H          1 MOL1         0.3769
      75    C22     20.888030   23.668164   21.735554 C.3        1 MOL1         0.1018
      76    H36     20.861507   24.764108   21.684253 H          1 MOL1         0.0783
      77    C23     21.636755   23.110072   20.496509 C.3        1 MOL1         0.1043
      78    H37     21.457304   22.031038   20.474777 H          1 MOL1         0.0783
      79    O19     23.065558   23.347364   20.603504 O.3        1 MOL1        -0.3740
      80    C24     21.126289   23.679812   19.149544 C.3        1 MOL1         0.0138
      81    H38     20.149503   23.229311   18.927964 H          1 MOL1         0.0794
      82    H39     21.813991   23.367053   18.352771 H          1 MOL1         0.0794
      83    O20     21.006622   25.106941   19.161586 O.3        1 MOL1        -0.5486
      84    H40     20.188508   25.328916   19.656282 H          1 MOL1         0.3769
      85    C25     24.812469   17.627667   20.599864 C.3        1 MOL1         0.2972
      86    H41     25.332296   16.767072   20.159957 H          1 MOL1         0.0751
      87    O21     23.589816   17.234492   21.251296 O.3        1 MOL1        -0.3740
      88    C26     25.714278   18.353574   21.629287 C.3        1 MOL1         0.1003
      89    H42     26.617386   18.674285   21.093998 H          1 MOL1         0.0783
      90    O22     26.091125   17.471479   22.699272 O.3        1 MOL1        -0.5519
      91    H43     25.254135   17.122048   23.098544 H          1 MOL1         0.3769
      92    C27     25.025155   19.620952   22.196553 C.3        1 MOL1         0.1053
      93    H44     24.231168   19.296132   22.881649 H          1 MOL1         0.0783
      94    O23     25.998181   20.386447   22.914925 O.3        1 MOL1        -0.5519
      95    H45     26.373416   19.772395   23.582320 H          1 MOL1         0.3769
      96    C28     24.381616   20.504804   21.091581 C.3        1 MOL1         0.1018
      97    H46     25.179564   21.091763   20.618778 H          1 MOL1         0.0783
      98    C29     23.639227   19.680711   19.998106 C.3        1 MOL1         0.1043
      99    H47     22.718340   19.280472   20.437923 H          1 MOL1         0.0783
     100    O24     24.478514   18.581665   19.572891 O.3        1 MOL1        -0.3740
     101    C30     23.223063   20.473128   18.730477 C.3        1 MOL1         0.0138
     102    H48     22.198299   20.837382   18.863000 H          1 MOL1         0.0794
     103    H49     23.193334   19.777552   17.881154 H          1 MOL1         0.0794
     104    O25     24.093418   21.570516   18.429603 O.3        1 MOL1        -0.5486
     105    H50     23.912180   22.275373   19.094781 H          1 MOL1         0.3769
     106    C31     21.277144   13.937332   22.142196 C.3        1 MOL1         0.2972
     107    H51     20.879315   12.941822   22.377634 H          1 MOL1         0.0751
     108    O26     20.223567   14.900882   21.959917 O.3        1 MOL1        -0.3740
     109    C32     22.179705   14.426040   23.300226 C.3        1 MOL1         0.1003
     110    H52     23.008082   13.712543   23.399142 H          1 MOL1         0.0783
     111    O27     21.436119   14.465089   24.528710 O.3        1 MOL1        -0.5519
     112    H53     20.486459   14.588343   24.282727 H          1 MOL1         0.3769
     113    C33     22.780172   15.815479   22.984416 C.3        1 MOL1         0.1053
     114    H54     21.962470   16.548730   22.990674 H          1 MOL1         0.0783
     115    O28     23.744951   16.156622   23.985980 O.3        1 MOL1        -0.5519
     116    H55     23.287745   16.001913   24.842112 H          1 MOL1         0.3769
     117    C34     23.449419   15.843160   21.588456 C.3        1 MOL1         0.1018
     118    H56     24.420848   15.335189   21.655016 H          1 MOL1         0.0783
     119    C35     22.572557   15.185825   20.484159 C.3        1 MOL1         0.1043
     120    H57     21.730249   15.860674   20.286331 H          1 MOL1         0.0783
     121    O29     22.061925   13.903605   20.932937 O.3        1 MOL1        -0.3740
     122    C36     23.309877   14.970914   19.140823 C.3        1 MOL1         0.0138
     123    H58     23.464850   15.949502   18.666632 H          1 MOL1         0.0794
     124    H59     22.661110   14.386366   18.474680 H          1 MOL1         0.0794
     125    O30     24.568736   14.309326   19.316187 O.3        1 MOL1        -0.5486
     126    H60     24.937025   14.127440   18.424213 H          1 MOL1         0.3769
     127    C1      21.504130   20.052718   24.642642 C.2        1 MOL1         0.6173
     128    O1      20.601925   20.415444   25.372765 O.co2      1 MOL1        -0.6755
     129    O2      22.672814   20.325377   24.841543 O.co2      1 MOL1        -0.6755
     130    C2      21.180385   19.346879   23.374940 C.2        1 MOL1        -0.1504
     131    H1      22.030559   19.070515   22.760042 H          1 MOL1         0.0814
     132    C3      19.927744   19.067121   22.952398 C.2        1 MOL1        -0.1394
     133    H2      19.056720   19.340564   23.547020 H          1 MOL1         0.0817
     134    C4      19.649902   18.379001   21.635915 C.3        1 MOL1        -0.1849
     135    H3      18.648139   17.934906   21.654762 H          1 MOL1         0.0736
     136    H4      20.363248   17.556435   21.503192 H          1 MOL1         0.0736
     137    C5      19.763753   19.360504   20.452020 C.3        1 MOL1        -0.1866
     138    H5      18.877605   20.006674   20.422651 H          1 MOL1         0.0738
     139    H6      20.621482   20.021061   20.612622 H          1 MOL1         0.0738
     140    C6      19.937154   18.630172   19.105042 C.3        1 MOL1        -0.2879
     141    H7      19.101901   17.948853   18.914541 H          1 MOL1         0.0750
     142    H8      19.983248   19.350525   18.278479 H          1 MOL1         0.0750
     143    H9      20.864899   18.043459   19.095978 H          1 MOL1         0.0750
@<TRIPOS>BOND
    1     1     2    1
    2     1     3    1
    3     1     4    1
    4     4     5    1
    5     4     6    1
    6     6     7    1
    7     4     8    1
    8     8     9    1
    9     8    10    1
   10    10    11    1
   11     8    12    1
   12    12    13    1
   13    12    14    1
   14    14    15    1
   15     1    16    1
   16    14    16    1
   17    14    17    1
   18    17    18    1
   19    17    19    1
   20    17    20    1
   21    20    21    1
   22    22    23    1
   23    22    24    1
   24    22    25    1
   25    25    26    1
   26    25    27    1
   27    27    28    1
   28    25    29    1
   29    29    30    1
   30    29    31    1
   31    31    32    1
   32     3    33    1
   33    29    33    1
   34    33    34    1
   35    33    35    1
   36    35    36    1
   37    22    37    1
   38    35    37    1
   39    35    38    1
   40    38    39    1
   41    38    40    1
   42    38    41    1
   43    41    42    1
   44    43    44    1
   45    43    45    1
   46    43    46    1
   47    46    47    1
   48    46    48    1
   49    48    49    1
   50    46    50    1
   51    50    51    1
   52    50    52    1
   53    52    53    1
   54    24    54    1
   55    50    54    1
   56    54    55    1
   57    54    56    1
   58    56    57    1
   59    43    58    1
   60    56    58    1
   61    56    59    1
   62    59    60    1
   63    59    61    1
   64    59    62    1
   65    62    63    1
   66    64    65    1
   67    64    66    1
   68    64    67    1
   69    67    68    1
   70    67    69    1
   71    69    70    1
   72    67    71    1
   73    71    72    1
   74    71    73    1
   75    73    74    1
   76    45    75    1
   77    71    75    1
   78    75    76    1
   79    75    77    1
   80    77    78    1
   81    64    79    1
   82    77    79    1
   83    77    80    1
   84    80    81    1
   85    80    82    1
   86    80    83    1
   87    83    84    1
   88    85    86    1
   89    85    87    1
   90    85    88    1
   91    88    89    1
   92    88    90    1
   93    90    91    1
   94    88    92    1
   95    92    93    1
   96    92    94    1
   97    94    95    1
   98    66    96    1
   99    92    96    1
  100    96    97    1
  101    96    98    1
  102    98    99    1
  103    85   100    1
  104    98   100    1
  105    98   101    1
  106   101   102    1
  107   101   103    1
  108   101   104    1
  109   104   105    1
  110   106   107    1
  111    12   108    1
  112   106   108    1
  113   106   109    1
  114   109   110    1
  115   109   111    1
  116   111   112    1
  117   109   113    1
  118   113   114    1
  119   113   115    1
  120   115   116    1
  121    87   117    1
  122   113   117    1
  123   117   118    1
  124   117   119    1
  125   119   120    1
  126   106   121    1
  127   119   121    1
  128   119   122    1
  129   122   123    1
  130   122   124    1
  131   122   125    1
  132   125   126    1
  133   127   128    1
  134   127   129    2
  135   127   130    1
  136   130   131    1
  137   130   132    2
  138   132   133    1
  139   132   134    1
  140   134   135    1
  141   134   136    1
  142   134   137    1
  143   137   138    1
  144   137   139    1
  145   137   140    1
  146   140   141    1
  147   140   142    1
  148   140   143    1
@<TRIPOS>SUBSTRUCTURE
       1 MOL1            1 RESIDUE      1      MOL     
       2 MOL1          143 RESIDUE      1      MOL     
@<SCITEGIC>MOL_PROPERTY
feprocess Rank
SciTegic.value.IntegerValue
38

@<SCITEGIC>MOL_PROPERTY
Conf_Id
SciTegic.value.IntegerValue
790

@<SCITEGIC>MOL_PROPERTY
Probability
SciTegic.value.DoubleValue
0.06

@<SCITEGIC>MOL_PROPERTY
G
SciTegic.value.DoubleValue
499.024

@<SCITEGIC>MOL_PROPERTY
E
SciTegic.value.DoubleValue
317.543

@<SCITEGIC>MOL_PROPERTY
-TS
SciTegic.value.DoubleValue
181.482

@<SCITEGIC>MOL_PROPERTY
U+W
SciTegic.value.DoubleValue
191.455

@<SCITEGIC>MOL_PROPERTY
U
SciTegic.value.DoubleValue
270.883

@<SCITEGIC>MOL_PROPERTY
W
SciTegic.value.DoubleValue
-79.428

@<SCITEGIC>MOL_PROPERTY
W(PB)
SciTegic.value.DoubleValue
-85.346

@<SCITEGIC>MOL_PROPERTY
W(SA)
SciTegic.value.DoubleValue
5.918

@<SCITEGIC>MOL_PROPERTY
Valence
SciTegic.value.DoubleValue
150.058

@<SCITEGIC>MOL_PROPERTY
Coulomb
SciTegic.value.DoubleValue
148.735

@<SCITEGIC>MOL_PROPERTY
VdW
SciTegic.value.DoubleValue
-27.911

@<SCITEGIC>MOL_PROPERTY
VdW6
SciTegic.value.DoubleValue
-182.205

@<SCITEGIC>MOL_PROPERTY
VdW12
SciTegic.value.DoubleValue
154.295

@<SCITEGIC>MOL_PROPERTY
Bond
SciTegic.value.DoubleValue
4.722

@<SCITEGIC>MOL_PROPERTY
Angle
SciTegic.value.DoubleValue
14.198

@<SCITEGIC>MOL_PROPERTY
Pdih
SciTegic.value.DoubleValue
131.114

@<SCITEGIC>MOL_PROPERTY
Idih
SciTegic.value.DoubleValue
0.024

@<SCITEGIC>MOL_PROPERTY
Tether
SciTegic.value.DoubleValue
0.000

@<TRIPOS>MOLECULE
CD_guest-s19_fast_vm2_rndm.mol2 : feprocess host+ligand conformer 39
         143         148           2
SMALL
USER_CHARGES
 
@<TRIPOS>ATOM
       1    C1      16.268823   15.227174   20.500955 C.3        1 MOL1         0.2972
       2    H1      15.212555   15.149305   20.213478 H          1 MOL1         0.0751
       3    O1      16.615648   16.580793   20.863213 O.3        1 MOL1        -0.3740
       4    C2      16.605787   14.258403   21.667755 C.3        1 MOL1         0.1003
       5    H2      16.433540   13.239412   21.297437 H          1 MOL1         0.0783
       6    O2      15.770619   14.476800   22.814073 O.3        1 MOL1        -0.5519
       7    H3      15.978781   15.385483   23.148960 H          1 MOL1         0.3769
       8    C3      18.100605   14.375683   22.050679 C.3        1 MOL1         0.1053
       9    H4      18.274995   15.382648   22.456715 H          1 MOL1         0.0783
      10    O3      18.424515   13.390315   23.038363 O.3        1 MOL1        -0.5519
      11    H5      17.697203   13.438525   23.697793 H          1 MOL1         0.3769
      12    C4      19.011025   14.186794   20.812320 C.3        1 MOL1         0.1018
      13    H6      19.031193   13.119650   20.556470 H          1 MOL1         0.0783
      14    C5      18.535924   15.020481   19.589318 C.3        1 MOL1         0.1043
      15    H7      18.741791   16.074081   19.805157 H          1 MOL1         0.0783
      16    O4      17.109658   14.846687   19.390360 O.3        1 MOL1        -0.3740
      17    C6      19.260997   14.683988   18.263432 C.3        1 MOL1         0.0138
      18    H8      20.279863   15.090445   18.303803 H          1 MOL1         0.0794
      19    H9      18.742186   15.203357   17.446734 H          1 MOL1         0.0794
      20    O5      19.307060   13.276501   17.998615 O.3        1 MOL1        -0.5486
      21    H10     20.129335   12.926104   18.401206 H          1 MOL1         0.3769
      22    C7      15.036623   20.220435   22.093371 C.3        1 MOL1         0.2972
      23    H11     14.403534   21.034555   22.469209 H          1 MOL1         0.0751
      24    O6      16.259609   20.721449   21.519157 O.3        1 MOL1        -0.3740
      25    C8      15.375013   19.232566   23.239591 C.3        1 MOL1         0.1003
      26    H12     14.423424   18.818095   23.597185 H          1 MOL1         0.0783
      27    O7      16.034626   19.889242   24.333303 O.3        1 MOL1        -0.5519
      28    H13     16.133087   20.841233   24.087907 H          1 MOL1         0.3769
      29    C9      16.237298   18.058293   22.723551 C.3        1 MOL1         0.1053
      30    H14     17.215632   18.457315   22.427540 H          1 MOL1         0.0783
      31    O8      16.399629   17.109317   23.782185 O.3        1 MOL1        -0.5519
      32    H15     16.701737   17.646809   24.548849 H          1 MOL1         0.3769
      33    C10     15.591400   17.383010   21.486720 C.3        1 MOL1         0.1018
      34    H16     14.740634   16.775310   21.821939 H          1 MOL1         0.0783
      35    C11     15.112152   18.420402   20.431029 C.3        1 MOL1         0.1043
      36    H17     16.000934   18.857257   19.957963 H          1 MOL1         0.0783
      37    O9      14.345848   19.476623   21.067387 O.3        1 MOL1        -0.3740
      38    C12     14.251956   17.801939   19.303287 C.3        1 MOL1         0.0138
      39    H18     14.903416   17.188656   18.665982 H          1 MOL1         0.0794
      40    H19     13.856464   18.614456   18.679163 H          1 MOL1         0.0794
      41    O10     13.180431   17.000390   19.816793 O.3        1 MOL1        -0.5486
      42    H20     12.633722   16.710018   19.054389 H          1 MOL1         0.3769
      43    C13     18.480236   24.180675   21.118559 C.3        1 MOL1         0.2972
      44    H21     18.868992   25.194995   20.961802 H          1 MOL1         0.0751
      45    O11     19.537933   23.215879   21.270010 O.3        1 MOL1        -0.3740
      46    C14     17.621002   24.133668   22.404189 C.3        1 MOL1         0.1003
      47    H22     16.770035   24.811742   22.258339 H          1 MOL1         0.0783
      48    O12     18.387451   24.571664   23.537073 O.3        1 MOL1        -0.5519
      49    H23     19.326489   24.309905   23.366955 H          1 MOL1         0.3769
      50    C15     17.063714   22.709566   22.644566 C.3        1 MOL1         0.1053
      51    H24     17.907143   22.049946   22.893783 H          1 MOL1         0.0783
      52    O13     16.143918   22.752891   23.739589 O.3        1 MOL1        -0.5519
      53    H25     16.584441   23.316974   24.415463 H          1 MOL1         0.3769
      54    C16     16.365306   22.151240   21.375062 C.3        1 MOL1         0.1018
      55    H26     15.380971   22.624063   21.265558 H          1 MOL1         0.0783
      56    C17     17.191566   22.392831   20.081897 C.3        1 MOL1         0.1043
      57    H27     18.065197   21.737697   20.127763 H          1 MOL1         0.0783
      58    O14     17.650660   23.766353   20.012925 O.3        1 MOL1        -0.3740
      59    C18     16.437275   22.040516   18.776215 C.3        1 MOL1         0.0138
      60    H28     16.384863   20.947008   18.687932 H          1 MOL1         0.0794
      61    H29     17.025762   22.405233   17.923852 H          1 MOL1         0.0794
      62    O15     15.115959   22.591698   18.733664 O.3        1 MOL1        -0.5486
      63    H30     14.552791   22.051221   19.328710 H          1 MOL1         0.3769
      64    C19     23.603353   22.593386   20.559497 C.3        1 MOL1         0.2972
      65    H31     24.647943   22.692376   20.238150 H          1 MOL1         0.0751
      66    O16     23.325301   21.251528   21.007890 O.3        1 MOL1        -0.3740
      67    C20     23.250602   23.643214   21.655847 C.3        1 MOL1         0.1003
      68    H32     23.411790   24.631180   21.205266 H          1 MOL1         0.0783
      69    O17     24.086645   23.533304   22.817061 O.3        1 MOL1        -0.5519
      70    H33     23.835535   22.685520   23.263463 H          1 MOL1         0.3769
      71    C21     21.758239   23.553241   22.058489 C.3        1 MOL1         0.1053
      72    H34     21.587378   22.590653   22.558923 H          1 MOL1         0.0783
      73    O18     21.432359   24.628852   22.946354 O.3        1 MOL1        -0.5519
      74    H35     22.160050   24.648370   23.606604 H          1 MOL1         0.3769
      75    C22     20.842684   23.607175   20.814822 C.3        1 MOL1         0.1018
      76    H36     20.855024   24.628206   20.411440 H          1 MOL1         0.0783
      77    C23     21.301872   22.608115   19.717028 C.3        1 MOL1         0.1043
      78    H37     21.158936   21.588183   20.098635 H          1 MOL1         0.0783
      79    O19     22.711442   22.834674   19.444880 O.3        1 MOL1        -0.3740
      80    C24     20.510952   22.691634   18.385985 C.3        1 MOL1         0.0138
      81    H38     19.653089   22.010831   18.450519 H          1 MOL1         0.0794
      82    H39     21.150661   22.317552   17.575534 H          1 MOL1         0.0794
      83    O20     20.048155   24.012418   18.080960 O.3        1 MOL1        -0.5486
      84    H40     19.234737   24.160151   18.616264 H          1 MOL1         0.3769
      85    C25     24.568500   17.764730   22.744757 C.3        1 MOL1         0.2972
      86    H41     25.059616   16.936909   23.271445 H          1 MOL1         0.0751
      87    O21     23.410590   17.316498   22.014931 O.3        1 MOL1        -0.3740
      88    C26     24.125143   18.846980   23.758264 C.3        1 MOL1         0.1003
      89    H42     25.030011   19.233993   24.243615 H          1 MOL1         0.0783
      90    O22     23.257495   18.286189   24.758029 O.3        1 MOL1        -0.5519
      91    H43     22.363437   18.153349   24.340735 H          1 MOL1         0.3769
      92    C27     23.434997   20.015882   23.021022 C.3        1 MOL1         0.1053
      93    H44     22.520611   19.620683   22.568667 H          1 MOL1         0.0783
      94    O23     23.106593   21.062534   23.942767 O.3        1 MOL1        -0.5519
      95    H45     22.222221   20.805566   24.318101 H          1 MOL1         0.3769
      96    C28     24.279048   20.567941   21.847900 C.3        1 MOL1         0.1018
      97    H46     25.062659   21.231531   22.234219 H          1 MOL1         0.0783
      98    C29     24.904415   19.439045   20.978987 C.3        1 MOL1         0.1043
      99    H47     24.097952   19.014521   20.370735 H          1 MOL1         0.0783
     100    O24     25.472102   18.385390   21.802647 O.3        1 MOL1        -0.3740
     101    C30     25.990793   19.944037   20.000466 C.3        1 MOL1         0.0138
     102    H48     25.504291   20.546476   19.221540 H          1 MOL1         0.0794
     103    H49     26.447211   19.076981   19.504302 H          1 MOL1         0.0794
     104    O25     26.993264   20.724256   20.663005 O.3        1 MOL1        -0.5486
     105    H50     27.683144   20.948597   20.000864 H          1 MOL1         0.3769
     106    C31     21.442947   13.847929   20.920547 C.3        1 MOL1         0.2972
     107    H51     21.147565   12.855369   20.558567 H          1 MOL1         0.0751
     108    O26     20.303146   14.678563   21.206329 O.3        1 MOL1        -0.3740
     109    C32     22.252186   13.719882   22.232324 C.3        1 MOL1         0.1003
     110    H52     23.144600   13.120832   22.009096 H          1 MOL1         0.0783
     111    O27     21.473616   13.051244   23.238634 O.3        1 MOL1        -0.5519
     112    H53     20.546559   13.390851   23.161967 H          1 MOL1         0.3769
     113    C33     22.724645   15.105757   22.741238 C.3        1 MOL1         0.1053
     114    H54     21.846359   15.665179   23.095293 H          1 MOL1         0.0783
     115    O28     23.641757   14.895972   23.819942 O.3        1 MOL1        -0.5519
     116    H55     23.171716   14.302399   24.445405 H          1 MOL1         0.3769
     117    C34     23.401114   15.934685   21.613971 C.3        1 MOL1         0.1018
     118    H56     24.416863   15.551802   21.452769 H          1 MOL1         0.0783
     119    C35     22.612631   15.888131   20.276398 C.3        1 MOL1         0.1043
     120    H57     21.689727   16.464428   20.413266 H          1 MOL1         0.0783
     121    O29     22.273443   14.518953   19.950438 O.3        1 MOL1        -0.3740
     122    C36     23.358171   16.519080   19.071555 C.3        1 MOL1         0.0138
     123    H58     23.145931   17.595126   19.059142 H          1 MOL1         0.0794
     124    H59     22.939378   16.105808   18.144339 H          1 MOL1         0.0794
     125    O30     24.775537   16.308512   19.108834 O.3        1 MOL1        -0.5486
     126    H60     25.123371   16.791381   19.891098 H          1 MOL1         0.3769
     127    C1      20.204793   19.302993   23.416056 C.2        1 MOL1         0.6173
     128    O1      20.351596   20.274575   24.133718 O.co2      1 MOL1        -0.6755
     129    O2      20.596749   18.191994   23.724666 O.co2      1 MOL1        -0.6755
     130    C2      19.724914   19.550949   22.028308 C.2        1 MOL1        -0.1504
     131    H1      19.470695   20.580558   21.796455 H          1 MOL1         0.0814
     132    C3      19.620102   18.589567   21.082862 C.2        1 MOL1        -0.1394
     133    H2      19.872472   17.556566   21.317825 H          1 MOL1         0.0817
     134    C4      19.157434   18.848896   19.664506 C.3        1 MOL1        -0.1849
     135    H3      18.831655   19.885433   19.556089 H          1 MOL1         0.0736
     136    H4      18.281653   18.229219   19.438090 H          1 MOL1         0.0736
     137    C5      20.273707   18.568858   18.641454 C.3        1 MOL1        -0.1866
     138    H5      21.153751   19.182294   18.879736 H          1 MOL1         0.0738
     139    H6      20.580983   17.519273   18.712953 H          1 MOL1         0.0738
     140    C6      19.810934   18.861770   17.201063 C.3        1 MOL1        -0.2879
     141    H7      18.951770   18.234049   16.930947 H          1 MOL1         0.0750
     142    H8      19.516369   19.912549   17.086726 H          1 MOL1         0.0750
     143    H9      20.618588   18.656552   16.486753 H          1 MOL1         0.0750
@<TRIPOS>BOND
    1     1     2    1
    2     1     3    1
    3     1     4    1
    4     4     5    1
    5     4     6    1
    6     6     7    1
    7     4     8    1
    8     8     9    1
    9     8    10    1
   10    10    11    1
   11     8    12    1
   12    12    13    1
   13    12    14    1
   14    14    15    1
   15     1    16    1
   16    14    16    1
   17    14    17    1
   18    17    18    1
   19    17    19    1
   20    17    20    1
   21    20    21    1
   22    22    23    1
   23    22    24    1
   24    22    25    1
   25    25    26    1
   26    25    27    1
   27    27    28    1
   28    25    29    1
   29    29    30    1
   30    29    31    1
   31    31    32    1
   32     3    33    1
   33    29    33    1
   34    33    34    1
   35    33    35    1
   36    35    36    1
   37    22    37    1
   38    35    37    1
   39    35    38    1
   40    38    39    1
   41    38    40    1
   42    38    41    1
   43    41    42    1
   44    43    44    1
   45    43    45    1
   46    43    46    1
   47    46    47    1
   48    46    48    1
   49    48    49    1
   50    46    50    1
   51    50    51    1
   52    50    52    1
   53    52    53    1
   54    24    54    1
   55    50    54    1
   56    54    55    1
   57    54    56    1
   58    56    57    1
   59    43    58    1
   60    56    58    1
   61    56    59    1
   62    59    60    1
   63    59    61    1
   64    59    62    1
   65    62    63    1
   66    64    65    1
   67    64    66    1
   68    64    67    1
   69    67    68    1
   70    67    69    1
   71    69    70    1
   72    67    71    1
   73    71    72    1
   74    71    73    1
   75    73    74    1
   76    45    75    1
   77    71    75    1
   78    75    76    1
   79    75    77    1
   80    77    78    1
   81    64    79    1
   82    77    79    1
   83    77    80    1
   84    80    81    1
   85    80    82    1
   86    80    83    1
   87    83    84    1
   88    85    86    1
   89    85    87    1
   90    85    88    1
   91    88    89    1
   92    88    90    1
   93    90    91    1
   94    88    92    1
   95    92    93    1
   96    92    94    1
   97    94    95    1
   98    66    96    1
   99    92    96    1
  100    96    97    1
  101    96    98    1
  102    98    99    1
  103    85   100    1
  104    98   100    1
  105    98   101    1
  106   101   102    1
  107   101   103    1
  108   101   104    1
  109   104   105    1
  110   106   107    1
  111    12   108    1
  112   106   108    1
  113   106   109    1
  114   109   110    1
  115   109   111    1
  116   111   112    1
  117   109   113    1
  118   113   114    1
  119   113   115    1
  120   115   116    1
  121    87   117    1
  122   113   117    1
  123   117   118    1
  124   117   119    1
  125   119   120    1
  126   106   121    1
  127   119   121    1
  128   119   122    1
  129   122   123    1
  130   122   124    1
  131   122   125    1
  132   125   126    1
  133   127   128    1
  134   127   129    2
  135   127   130    1
  136   130   131    1
  137   130   132    2
  138   132   133    1
  139   132   134    1
  140   134   135    1
  141   134   136    1
  142   134   137    1
  143   137   138    1
  144   137   139    1
  145   137   140    1
  146   140   141    1
  147   140   142    1
  148   140   143    1
@<TRIPOS>SUBSTRUCTURE
       1 MOL1            1 RESIDUE      1      MOL     
       2 MOL1          143 RESIDUE      1      MOL     
@<SCITEGIC>MOL_PROPERTY
feprocess Rank
SciTegic.value.IntegerValue
39

@<SCITEGIC>MOL_PROPERTY
Conf_Id
SciTegic.value.IntegerValue
149

@<SCITEGIC>MOL_PROPERTY
Probability
SciTegic.value.DoubleValue
0.06

@<SCITEGIC>MOL_PROPERTY
G
SciTegic.value.DoubleValue
499.025

@<SCITEGIC>MOL_PROPERTY
E
SciTegic.value.DoubleValue
318.442

@<SCITEGIC>MOL_PROPERTY
-TS
SciTegic.value.DoubleValue
180.583

@<SCITEGIC>MOL_PROPERTY
U+W
SciTegic.value.DoubleValue
192.354

@<SCITEGIC>MOL_PROPERTY
U
SciTegic.value.DoubleValue
266.101

@<SCITEGIC>MOL_PROPERTY
W
SciTegic.value.DoubleValue
-73.747

@<SCITEGIC>MOL_PROPERTY
W(PB)
SciTegic.value.DoubleValue
-79.656

@<SCITEGIC>MOL_PROPERTY
W(SA)
SciTegic.value.DoubleValue
5.909

@<SCITEGIC>MOL_PROPERTY
Valence
SciTegic.value.DoubleValue
149.562

@<SCITEGIC>MOL_PROPERTY
Coulomb
SciTegic.value.DoubleValue
142.110

@<SCITEGIC>MOL_PROPERTY
VdW
SciTegic.value.DoubleValue
-25.572

@<SCITEGIC>MOL_PROPERTY
VdW6
SciTegic.value.DoubleValue
-181.324

@<SCITEGIC>MOL_PROPERTY
VdW12
SciTegic.value.DoubleValue
155.752

@<SCITEGIC>MOL_PROPERTY
Bond
SciTegic.value.DoubleValue
4.880

@<SCITEGIC>MOL_PROPERTY
Angle
SciTegic.value.DoubleValue
15.799

@<SCITEGIC>MOL_PROPERTY
Pdih
SciTegic.value.DoubleValue
128.817

@<SCITEGIC>MOL_PROPERTY
Idih
SciTegic.value.DoubleValue
0.066

@<SCITEGIC>MOL_PROPERTY
Tether
SciTegic.value.DoubleValue
0.000

@<TRIPOS>MOLECULE
CD_guest-s19_fast_vm2_rndm.mol2 : feprocess host+ligand conformer 40
         143         148           2
SMALL
USER_CHARGES
 
@<TRIPOS>ATOM
       1    C1      16.209702   15.128564   21.534350 C.3        1 MOL1         0.2972
       2    H1      15.126462   14.952883   21.515637 H          1 MOL1         0.0751
       3    O1      16.514250   16.534004   21.621909 O.3        1 MOL1        -0.3740
       4    C2      16.824479   14.428614   22.770857 C.3        1 MOL1         0.1003
       5    H2      16.597650   13.357413   22.692326 H          1 MOL1         0.0783
       6    O2      16.244210   14.950019   23.977258 O.3        1 MOL1        -0.5519
       7    H3      15.943442   15.869281   23.772736 H          1 MOL1         0.3769
       8    C3      18.362178   14.591265   22.793782 C.3        1 MOL1         0.1053
       9    H4      18.591223   15.653207   22.959338 H          1 MOL1         0.0783
      10    O3      18.908276   13.805751   23.858581 O.3        1 MOL1        -0.5519
      11    H5      18.341765   14.006555   24.636823 H          1 MOL1         0.3769
      12    C4      18.990268   14.161671   21.445556 C.3        1 MOL1         0.1018
      13    H6      18.945935   13.067644   21.367379 H          1 MOL1         0.0783
      14    C5      18.264117   14.817082   20.237940 C.3        1 MOL1         0.1043
      15    H7      18.468396   15.894547   20.270449 H          1 MOL1         0.0783
      16    O4      16.832670   14.602780   20.342619 O.3        1 MOL1        -0.3740
      17    C6      18.737602   14.303766   18.856125 C.3        1 MOL1         0.0138
      18    H8      19.737022   14.710195   18.651310 H          1 MOL1         0.0794
      19    H9      18.063449   14.705178   18.087943 H          1 MOL1         0.0794
      20    O5      18.768023   12.873697   18.779914 O.3        1 MOL1        -0.5486
      21    H10     19.663139   12.581894   19.052817 H          1 MOL1         0.3769
      22    C7      14.830598   20.272723   20.828483 C.3        1 MOL1         0.2972
      23    H11     14.177967   21.091191   20.498550 H          1 MOL1         0.0751
      24    O6      16.104368   20.758284   21.300769 O.3        1 MOL1        -0.3740
      25    C8      14.170686   19.467202   21.978544 C.3        1 MOL1         0.1003
      26    H12     13.239369   19.039473   21.585054 H          1 MOL1         0.0783
      27    O7      13.857928   20.308820   23.099147 O.3        1 MOL1        -0.5519
      28    H13     14.642147   20.891763   23.263743 H          1 MOL1         0.3769
      29    C9      15.084967   18.294079   22.411640 C.3        1 MOL1         0.1053
      30    H14     16.005373   18.710406   22.844455 H          1 MOL1         0.0783
      31    O8      14.410096   17.490588   23.385637 O.3        1 MOL1        -0.5519
      32    H15     14.011612   18.133363   24.014018 H          1 MOL1         0.3769
      33    C10     15.469001   17.425803   21.189197 C.3        1 MOL1         0.1018
      34    H16     14.572554   16.882337   20.863199 H          1 MOL1         0.0783
      35    C11     16.001663   18.281506   20.005627 C.3        1 MOL1         0.1043
      36    H17     16.965766   18.715484   20.294641 H          1 MOL1         0.0783
      37    O9      15.068314   19.356232   19.736003 O.3        1 MOL1        -0.3740
      38    C12     16.230575   17.488744   18.692242 C.3        1 MOL1         0.0138
      39    H18     17.231440   17.042856   18.723823 H          1 MOL1         0.0794
      40    H19     16.223281   18.195565   17.851898 H          1 MOL1         0.0794
      41    O10     15.262640   16.455630   18.476060 O.3        1 MOL1        -0.5486
      42    H20     15.553479   15.678938   19.007626 H          1 MOL1         0.3769
      43    C13     18.465381   24.142726   21.697752 C.3        1 MOL1         0.2972
      44    H21     18.843535   25.170602   21.764625 H          1 MOL1         0.0751
      45    O11     19.549376   23.190388   21.744641 O.3        1 MOL1        -0.3740
      46    C14     17.477615   23.889924   22.867942 C.3        1 MOL1         0.1003
      47    H22     16.671135   24.627123   22.762561 H          1 MOL1         0.0783
      48    O12     18.109331   24.078238   24.142739 O.3        1 MOL1        -0.5519
      49    H23     18.781197   23.351593   24.247319 H          1 MOL1         0.3769
      50    C15     16.839113   22.485423   22.792325 C.3        1 MOL1         0.1053
      51    H24     17.614985   21.747687   23.013714 H          1 MOL1         0.0783
      52    O13     15.802144   22.386825   23.773174 O.3        1 MOL1        -0.5519
      53    H25     16.194596   22.754567   24.596574 H          1 MOL1         0.3769
      54    C16     16.265353   22.188811   21.385638 C.3        1 MOL1         0.1018
      55    H26     15.309991   22.720211   21.283525 H          1 MOL1         0.0783
      56    C17     17.229384   22.608088   20.241022 C.3        1 MOL1         0.1043
      57    H27     18.067660   21.898729   20.233432 H          1 MOL1         0.0783
      58    O14     17.741715   23.948597   20.463842 O.3        1 MOL1        -0.3740
      59    C18     16.568320   22.562702   18.841882 C.3        1 MOL1         0.0138
      60    H28     16.399457   21.511732   18.570748 H          1 MOL1         0.0794
      61    H29     17.268016   22.981189   18.106465 H          1 MOL1         0.0794
      62    O15     15.326936   23.278099   18.807631 O.3        1 MOL1        -0.5486
      63    H30     14.993441   23.252017   17.884487 H          1 MOL1         0.3769
      64    C19     23.585995   22.765424   20.703447 C.3        1 MOL1         0.2972
      65    H31     24.614945   22.906481   20.348765 H          1 MOL1         0.0751
      66    O16     23.305863   21.367442   20.954174 O.3        1 MOL1        -0.3740
      67    C20     23.305726   23.622610   21.968361 C.3        1 MOL1         0.1003
      68    H32     23.386403   24.675625   21.669773 H          1 MOL1         0.0783
      69    O17     24.269910   23.371159   23.000951 O.3        1 MOL1        -0.5519
      70    H33     24.020620   22.505239   23.409533 H          1 MOL1         0.3769
      71    C21     21.850494   23.377453   22.445926 C.3        1 MOL1         0.1053
      72    H34     21.759671   22.316886   22.708020 H          1 MOL1         0.0783
      73    O18     21.537197   24.178657   23.589109 O.3        1 MOL1        -0.5519
      74    H35     20.918599   23.618078   24.123363 H          1 MOL1         0.3769
      75    C22     20.841491   23.675861   21.305276 C.3        1 MOL1         0.1018
      76    H36     20.833092   24.760993   21.139922 H          1 MOL1         0.0783
      77    C23     21.249781   22.958348   19.982706 C.3        1 MOL1         0.1043
      78    H37     21.111394   21.882810   20.126242 H          1 MOL1         0.0783
      79    O19     22.650092   23.215831   19.698820 O.3        1 MOL1        -0.3740
      80    C24     20.431198   23.349705   18.726742 C.3        1 MOL1         0.0138
      81    H38     19.555393   22.693717   18.664120 H          1 MOL1         0.0794
      82    H39     21.040690   23.144066   17.836669 H          1 MOL1         0.0794
      83    O20     20.011796   24.718528   18.726447 O.3        1 MOL1        -0.5486
      84    H40     19.190155   24.759111   19.269392 H          1 MOL1         0.3769
      85    C25     24.877521   17.686694   22.014887 C.3        1 MOL1         0.2972
      86    H41     25.505071   16.847301   22.340375 H          1 MOL1         0.0751
      87    O21     23.648057   17.226602   21.418683 O.3        1 MOL1        -0.3740
      88    C26     24.546043   18.607661   23.217785 C.3        1 MOL1         0.1003
      89    H42     25.500670   18.977682   23.613267 H          1 MOL1         0.0783
      90    O22     23.862413   17.880567   24.251197 O.3        1 MOL1        -0.5519
      91    H43     23.962951   16.920300   24.049191 H          1 MOL1         0.3769
      92    C27     23.710535   19.832001   22.769832 C.3        1 MOL1         0.1053
      93    H44     22.723145   19.471116   22.462152 H          1 MOL1         0.0783
      94    O23     23.576652   20.743791   23.866613 O.3        1 MOL1        -0.5519
      95    H45     22.887020   20.358560   24.471027 H          1 MOL1         0.3769
      96    C28     24.343938   20.558196   21.551492 C.3        1 MOL1         0.1018
      97    H46     25.191165   21.163192   21.899314 H          1 MOL1         0.0783
      98    C29     24.822142   19.570544   20.449754 C.3        1 MOL1         0.1043
      99    H47     23.933197   19.163449   19.950813 H          1 MOL1         0.0783
     100    O24     25.577922   18.479589   21.033883 O.3        1 MOL1        -0.3740
     101    C30     25.689649   20.240296   19.357176 C.3        1 MOL1         0.0138
     102    H48     25.044548   20.892949   18.753532 H          1 MOL1         0.0794
     103    H49     26.077797   19.458568   18.690579 H          1 MOL1         0.0794
     104    O25     26.768588   21.003371   19.912003 O.3        1 MOL1        -0.5486
     105    H50     27.314746   21.333762   19.165623 H          1 MOL1         0.3769
     106    C31     21.397546   13.742825   21.108781 C.3        1 MOL1         0.2972
     107    H51     21.021364   12.729578   20.921276 H          1 MOL1         0.0751
     108    O26     20.341797   14.653421   21.465818 O.3        1 MOL1        -0.3740
     109    C32     22.416097   13.736918   22.274533 C.3        1 MOL1         0.1003
     110    H52     23.253154   13.093020   21.974617 H          1 MOL1         0.0783
     111    O27     21.821082   13.208498   23.470592 O.3        1 MOL1        -0.5519
     112    H53     20.905669   13.582835   23.534085 H          1 MOL1         0.3769
     113    C33     22.976957   15.158561   22.531823 C.3        1 MOL1         0.1053
     114    H54     22.160504   15.786359   22.916157 H          1 MOL1         0.0783
     115    O28     24.019763   15.061787   23.508010 O.3        1 MOL1        -0.5519
     116    H55     23.679401   14.423468   24.175950 H          1 MOL1         0.3769
     117    C34     23.507819   15.804846   21.221529 C.3        1 MOL1         0.1018
     118    H56     24.465028   15.341141   20.951416 H          1 MOL1         0.0783
     119    C35     22.510032   15.639063   20.043213 C.3        1 MOL1         0.1043
     120    H57     21.643211   16.274061   20.251612 H          1 MOL1         0.0783
     121    O29     22.071057   14.261334   19.942399 O.3        1 MOL1        -0.3740
     122    C36     23.073497   16.093336   18.674339 C.3        1 MOL1         0.0138
     123    H58     23.097854   17.191262   18.656249 H          1 MOL1         0.0794
     124    H59     22.377561   15.773577   17.887600 H          1 MOL1         0.0794
     125    O30     24.384069   15.576437   18.413871 O.3        1 MOL1        -0.5486
     126    H60     25.010982   16.064000   18.990452 H          1 MOL1         0.3769
     127    C1      20.340544   20.856789   24.465464 C.2        1 MOL1         0.6173
     128    O1      19.947031   22.000975   24.615696 O.co2      1 MOL1        -0.6755
     129    O2      21.104319   20.303897   25.234976 O.co2      1 MOL1        -0.6755
     130    C2      19.923927   20.149914   23.223940 C.2        1 MOL1        -0.1504
     131    H1      19.332650   20.727723   22.524968 H          1 MOL1         0.0814
     132    C3      20.247317   18.875739   22.913336 C.2        1 MOL1        -0.1394
     133    H2      20.849913   18.266080   23.586665 H          1 MOL1         0.0817
     134    C4      19.814160   18.217492   21.622373 C.3        1 MOL1        -0.1849
     135    H3      18.723062   18.268894   21.540467 H          1 MOL1         0.0736
     136    H4      20.077242   17.157027   21.651586 H          1 MOL1         0.0736
     137    C5      20.471466   18.884859   20.395034 C.3        1 MOL1        -0.1866
     138    H5      20.272939   19.960762   20.423745 H          1 MOL1         0.0738
     139    H6      21.560438   18.762022   20.452402 H          1 MOL1         0.0738
     140    C6      19.952655   18.329426   19.054384 C.3        1 MOL1        -0.2879
     141    H7      18.904107   18.607340   18.904527 H          1 MOL1         0.0750
     142    H8      20.528858   18.747439   18.219071 H          1 MOL1         0.0750
     143    H9      20.033561   17.237673   19.009900 H          1 MOL1         0.0750
@<TRIPOS>BOND
    1     1     2    1
    2     1     3    1
    3     1     4    1
    4     4     5    1
    5     4     6    1
    6     6     7    1
    7     4     8    1
    8     8     9    1
    9     8    10    1
   10    10    11    1
   11     8    12    1
   12    12    13    1
   13    12    14    1
   14    14    15    1
   15     1    16    1
   16    14    16    1
   17    14    17    1
   18    17    18    1
   19    17    19    1
   20    17    20    1
   21    20    21    1
   22    22    23    1
   23    22    24    1
   24    22    25    1
   25    25    26    1
   26    25    27    1
   27    27    28    1
   28    25    29    1
   29    29    30    1
   30    29    31    1
   31    31    32    1
   32     3    33    1
   33    29    33    1
   34    33    34    1
   35    33    35    1
   36    35    36    1
   37    22    37    1
   38    35    37    1
   39    35    38    1
   40    38    39    1
   41    38    40    1
   42    38    41    1
   43    41    42    1
   44    43    44    1
   45    43    45    1
   46    43    46    1
   47    46    47    1
   48    46    48    1
   49    48    49    1
   50    46    50    1
   51    50    51    1
   52    50    52    1
   53    52    53    1
   54    24    54    1
   55    50    54    1
   56    54    55    1
   57    54    56    1
   58    56    57    1
   59    43    58    1
   60    56    58    1
   61    56    59    1
   62    59    60    1
   63    59    61    1
   64    59    62    1
   65    62    63    1
   66    64    65    1
   67    64    66    1
   68    64    67    1
   69    67    68    1
   70    67    69    1
   71    69    70    1
   72    67    71    1
   73    71    72    1
   74    71    73    1
   75    73    74    1
   76    45    75    1
   77    71    75    1
   78    75    76    1
   79    75    77    1
   80    77    78    1
   81    64    79    1
   82    77    79    1
   83    77    80    1
   84    80    81    1
   85    80    82    1
   86    80    83    1
   87    83    84    1
   88    85    86    1
   89    85    87    1
   90    85    88    1
   91    88    89    1
   92    88    90    1
   93    90    91    1
   94    88    92    1
   95    92    93    1
   96    92    94    1
   97    94    95    1
   98    66    96    1
   99    92    96    1
  100    96    97    1
  101    96    98    1
  102    98    99    1
  103    85   100    1
  104    98   100    1
  105    98   101    1
  106   101   102    1
  107   101   103    1
  108   101   104    1
  109   104   105    1
  110   106   107    1
  111    12   108    1
  112   106   108    1
  113   106   109    1
  114   109   110    1
  115   109   111    1
  116   111   112    1
  117   109   113    1
  118   113   114    1
  119   113   115    1
  120   115   116    1
  121    87   117    1
  122   113   117    1
  123   117   118    1
  124   117   119    1
  125   119   120    1
  126   106   121    1
  127   119   121    1
  128   119   122    1
  129   122   123    1
  130   122   124    1
  131   122   125    1
  132   125   126    1
  133   127   128    1
  134   127   129    2
  135   127   130    1
  136   130   131    1
  137   130   132    2
  138   132   133    1
  139   132   134    1
  140   134   135    1
  141   134   136    1
  142   134   137    1
  143   137   138    1
  144   137   139    1
  145   137   140    1
  146   140   141    1
  147   140   142    1
  148   140   143    1
@<TRIPOS>SUBSTRUCTURE
       1 MOL1            1 RESIDUE      1      MOL     
       2 MOL1          143 RESIDUE      1      MOL     
@<SCITEGIC>MOL_PROPERTY
feprocess Rank
SciTegic.value.IntegerValue
40

@<SCITEGIC>MOL_PROPERTY
Conf_Id
SciTegic.value.IntegerValue
513

@<SCITEGIC>MOL_PROPERTY
Probability
SciTegic.value.DoubleValue
0.05

@<SCITEGIC>MOL_PROPERTY
G
SciTegic.value.DoubleValue
499.089

@<SCITEGIC>MOL_PROPERTY
E
SciTegic.value.DoubleValue
315.063

@<SCITEGIC>MOL_PROPERTY
-TS
SciTegic.value.DoubleValue
184.027

@<SCITEGIC>MOL_PROPERTY
U+W
SciTegic.value.DoubleValue
188.974

@<SCITEGIC>MOL_PROPERTY
U
SciTegic.value.DoubleValue
268.461

@<SCITEGIC>MOL_PROPERTY
W
SciTegic.value.DoubleValue
-79.487

@<SCITEGIC>MOL_PROPERTY
W(PB)
SciTegic.value.DoubleValue
-85.452

@<SCITEGIC>MOL_PROPERTY
W(SA)
SciTegic.value.DoubleValue
5.965

@<SCITEGIC>MOL_PROPERTY
Valence
SciTegic.value.DoubleValue
151.270

@<SCITEGIC>MOL_PROPERTY
Coulomb
SciTegic.value.DoubleValue
141.631

@<SCITEGIC>MOL_PROPERTY
VdW
SciTegic.value.DoubleValue
-24.440

@<SCITEGIC>MOL_PROPERTY
VdW6
SciTegic.value.DoubleValue
-184.207

@<SCITEGIC>MOL_PROPERTY
VdW12
SciTegic.value.DoubleValue
159.767

@<SCITEGIC>MOL_PROPERTY
Bond
SciTegic.value.DoubleValue
5.159

@<SCITEGIC>MOL_PROPERTY
Angle
SciTegic.value.DoubleValue
14.399

@<SCITEGIC>MOL_PROPERTY
Pdih
SciTegic.value.DoubleValue
131.700

@<SCITEGIC>MOL_PROPERTY
Idih
SciTegic.value.DoubleValue
0.012

@<SCITEGIC>MOL_PROPERTY
Tether
SciTegic.value.DoubleValue
0.000

@<TRIPOS>MOLECULE
CD_guest-s19_fast_vm2_rndm.mol2 : feprocess host+ligand conformer 41
         143         148           2
SMALL
USER_CHARGES
 
@<TRIPOS>ATOM
       1    C1      16.297168   15.299530   20.404529 C.3        1 MOL1         0.2972
       2    H1      15.345294   15.077694   19.906690 H          1 MOL1         0.0751
       3    O1      16.395420   16.685394   20.787982 O.3        1 MOL1        -0.3740
       4    C2      16.460011   14.432755   21.675927 C.3        1 MOL1         0.1003
       5    H2      16.457960   13.383163   21.354027 H          1 MOL1         0.0783
       6    O2      15.370637   14.640948   22.588755 O.3        1 MOL1        -0.5519
       7    H3      15.200360   15.615967   22.633987 H          1 MOL1         0.3769
       8    C3      17.817574   14.709182   22.368889 C.3        1 MOL1         0.1053
       9    H4      17.793879   15.725097   22.787371 H          1 MOL1         0.0783
      10    O3      17.989559   13.750302   23.417116 O.3        1 MOL1        -0.5519
      11    H5      17.151375   13.775521   23.928901 H          1 MOL1         0.3769
      12    C4      19.002136   14.624334   21.366783 C.3        1 MOL1         0.1018
      13    H6      19.205315   13.564797   21.165194 H          1 MOL1         0.0783
      14    C5      18.713138   15.352820   20.020971 C.3        1 MOL1         0.1043
      15    H7      18.738995   16.432636   20.206649 H          1 MOL1         0.0783
      16    O4      17.400307   14.987177   19.531031 O.3        1 MOL1        -0.3740
      17    C6      19.738132   15.061190   18.893312 C.3        1 MOL1         0.0138
      18    H8      20.542704   15.802273   18.950101 H          1 MOL1         0.0794
      19    H9      19.244802   15.217221   17.924645 H          1 MOL1         0.0794
      20    O5      20.289671   13.738905   18.953506 O.3        1 MOL1        -0.5486
      21    H10     20.801544   13.668634   19.791036 H          1 MOL1         0.3769
      22    C7      14.719671   20.424005   20.554349 C.3        1 MOL1         0.2972
      23    H11     14.130045   21.335888   20.394735 H          1 MOL1         0.0751
      24    O6      16.083276   20.733147   20.918115 O.3        1 MOL1        -0.3740
      25    C8      14.070001   19.509755   21.626035 C.3        1 MOL1         0.1003
      26    H12     13.112234   19.164946   21.214713 H          1 MOL1         0.0783
      27    O7      13.812982   20.204185   22.854562 O.3        1 MOL1        -0.5519
      28    H13     14.695014   20.436162   23.239206 H          1 MOL1         0.3769
      29    C9      14.957932   18.264825   21.863779 C.3        1 MOL1         0.1053
      30    H14     15.914346   18.596837   22.290968 H          1 MOL1         0.0783
      31    O8      14.302722   17.379194   22.776946 O.3        1 MOL1        -0.5519
      32    H15     13.959791   17.957613   23.494343 H          1 MOL1         0.3769
      33    C10     15.251145   17.523402   20.534049 C.3        1 MOL1         0.1018
      34    H16     14.361306   16.939542   20.266736 H          1 MOL1         0.0783
      35    C11     15.628819   18.480671   19.363808 C.3        1 MOL1         0.1043
      36    H17     16.659087   18.820230   19.519989 H          1 MOL1         0.0783
      37    O9      14.758822   19.642063   19.341599 O.3        1 MOL1        -0.3740
      38    C12     15.586289   17.807574   17.970354 C.3        1 MOL1         0.0138
      39    H18     16.380733   17.050929   17.917754 H          1 MOL1         0.0794
      40    H19     15.816698   18.569426   17.213876 H          1 MOL1         0.0794
      41    O10     14.316313   17.206141   17.685801 O.3        1 MOL1        -0.5486
      42    H20     14.265595   16.356568   18.170352 H          1 MOL1         0.3769
      43    C13     18.645635   23.506058   22.600394 C.3        1 MOL1         0.2972
      44    H21     19.115462   24.357795   23.108699 H          1 MOL1         0.0751
      45    O11     19.626457   22.673703   21.953845 O.3        1 MOL1        -0.3740
      46    C14     17.881808   22.637285   23.626349 C.3        1 MOL1         0.1003
      47    H22     17.106988   23.266539   24.083208 H          1 MOL1         0.0783
      48    O12     18.771652   22.161001   24.647218 O.3        1 MOL1        -0.5519
      49    H23     19.582416   21.847778   24.186599 H          1 MOL1         0.3769
      50    C15     17.187044   21.445626   22.932183 C.3        1 MOL1         0.1053
      51    H24     17.965064   20.779334   22.544241 H          1 MOL1         0.0783
      52    O13     16.400275   20.751451   23.903983 O.3        1 MOL1        -0.5519
      53    H25     16.998120   20.639012   24.677189 H          1 MOL1         0.3769
      54    C16     16.316077   21.901699   21.732913 C.3        1 MOL1         0.1018
      55    H26     15.382381   22.338749   22.110674 H          1 MOL1         0.0783
      56    C17     17.054551   22.922777   20.821182 C.3        1 MOL1         0.1043
      57    H27     17.818289   22.369345   20.264420 H          1 MOL1         0.0783
      58    O14     17.705240   23.959351   21.601958 O.3        1 MOL1        -0.3740
      59    C18     16.130149   23.596191   19.779153 C.3        1 MOL1         0.0138
      60    H28     15.837533   22.842452   19.035548 H          1 MOL1         0.0794
      61    H29     16.701043   24.371231   19.250324 H          1 MOL1         0.0794
      62    O15     14.960406   24.162424   20.382763 O.3        1 MOL1        -0.5486
      63    H30     14.460731   24.633413   19.680584 H          1 MOL1         0.3769
      64    C19     23.615526   22.703911   20.832094 C.3        1 MOL1         0.2972
      65    H31     24.619146   22.933744   20.452345 H          1 MOL1         0.0751
      66    O16     23.468140   21.311077   21.168938 O.3        1 MOL1        -0.3740
      67    C20     23.313247   23.514511   22.115714 C.3        1 MOL1         0.1003
      68    H32     23.343309   24.578544   21.847418 H          1 MOL1         0.0783
      69    O17     24.297792   23.257232   23.129879 O.3        1 MOL1        -0.5519
      70    H33     24.482241   22.283586   23.120927 H          1 MOL1         0.3769
      71    C21     21.890978   23.195012   22.642398 C.3        1 MOL1         0.1053
      72    H34     21.878526   22.153892   22.996510 H          1 MOL1         0.0783
      73    O18     21.593565   24.081201   23.725493 O.3        1 MOL1        -0.5519
      74    H35     22.377029   24.033730   24.316716 H          1 MOL1         0.3769
      75    C22     20.826652   23.340708   21.519870 C.3        1 MOL1         0.1018
      76    H36     20.653539   24.409220   21.337702 H          1 MOL1         0.0783
      77    C23     21.258814   22.659546   20.190898 C.3        1 MOL1         0.1043
      78    H37     21.234432   21.576002   20.342124 H          1 MOL1         0.0783
      79    O19     22.610355   23.054028   19.855366 O.3        1 MOL1        -0.3740
      80    C24     20.334105   22.958002   18.982036 C.3        1 MOL1         0.0138
      81    H38     19.542532   22.199046   18.956220 H          1 MOL1         0.0794
      82    H39     20.914420   22.835197   18.057904 H          1 MOL1         0.0794
      83    O20     19.748274   24.266012   19.025725 O.3        1 MOL1        -0.5486
      84    H40     19.165834   24.301515   19.817764 H          1 MOL1         0.3769
      85    C25     25.078821   17.539783   20.865097 C.3        1 MOL1         0.2972
      86    H41     25.675192   16.637542   20.682660 H          1 MOL1         0.0751
      87    O21     23.712295   17.211862   21.196674 O.3        1 MOL1        -0.3740
      88    C26     25.711853   18.415002   21.979064 C.3        1 MOL1         0.1003
      89    H42     26.686017   18.753718   21.602743 H          1 MOL1         0.0783
      90    O22     25.924798   17.675835   23.190460 O.3        1 MOL1        -0.5519
      91    H43     25.030339   17.449456   23.549123 H          1 MOL1         0.3769
      92    C27     24.843730   19.672092   22.231627 C.3        1 MOL1         0.1053
      93    H44     23.873148   19.351812   22.636579 H          1 MOL1         0.0783
      94    O23     25.503031   20.527798   23.171161 O.3        1 MOL1        -0.5519
      95    H45     25.781010   19.937955   23.906350 H          1 MOL1         0.3769
      96    C28     24.587092   20.445098   20.912777 C.3        1 MOL1         0.1018
      97    H46     25.495347   21.004919   20.654332 H          1 MOL1         0.0783
      98    C29     24.181730   19.517231   19.732744 C.3        1 MOL1         0.1043
      99    H47     23.150585   19.184471   19.904904 H          1 MOL1         0.0783
     100    O24     25.047927   18.354540   19.675103 O.3        1 MOL1        -0.3740
     101    C30     24.212062   20.224800   18.357246 C.3        1 MOL1         0.0138
     102    H48     23.393074   20.955696   18.324022 H          1 MOL1         0.0794
     103    H49     24.015232   19.479142   17.575415 H          1 MOL1         0.0794
     104    O25     25.461898   20.883982   18.115843 O.3        1 MOL1        -0.5486
     105    H50     25.422247   21.276588   17.216702 H          1 MOL1         0.3769
     106    C31     21.073698   14.402717   22.637989 C.3        1 MOL1         0.2972
     107    H51     20.561373   13.540422   23.083480 H          1 MOL1         0.0751
     108    O26     20.138292   15.277465   21.971863 O.3        1 MOL1        -0.3740
     109    C32     21.834407   15.182219   23.739278 C.3        1 MOL1         0.1003
     110    H52     22.621063   14.513960   24.112377 H          1 MOL1         0.0783
     111    O27     20.966290   15.504564   24.839486 O.3        1 MOL1        -0.5519
     112    H53     20.695591   16.456122   24.777929 H          1 MOL1         0.3769
     113    C33     22.530801   16.421809   23.127193 C.3        1 MOL1         0.1053
     114    H54     21.760562   17.081577   22.711910 H          1 MOL1         0.0783
     115    O28     23.286223   17.118284   24.125779 O.3        1 MOL1        -0.5519
     116    H55     22.727921   17.895931   24.399053 H          1 MOL1         0.3769
     117    C34     23.456394   16.010429   21.953609 C.3        1 MOL1         0.1018
     118    H56     24.374831   15.567706   22.359177 H          1 MOL1         0.0783
     119    C35     22.765383   15.024665   20.967910 C.3        1 MOL1         0.1043
     120    H57     22.045603   15.614219   20.391173 H          1 MOL1         0.0783
     121    O29     22.050136   13.969766   21.664747 O.3        1 MOL1        -0.3740
     122    C36     23.738897   14.372523   19.956141 C.3        1 MOL1         0.0138
     123    H58     24.152586   15.156120   19.306985 H          1 MOL1         0.0794
     124    H59     23.167236   13.691432   19.311887 H          1 MOL1         0.0794
     125    O30     24.799776   13.655228   20.600658 O.3        1 MOL1        -0.5486
     126    H60     25.377164   14.299844   21.058868 H          1 MOL1         0.3769
     127    C1      20.499539   18.848439   24.208688 C.2        1 MOL1         0.6173
     128    O1      21.594187   19.378647   24.241418 O.co2      1 MOL1        -0.6755
     129    O2      20.060843   18.185903   25.126350 O.co2      1 MOL1        -0.6755
     130    C2      19.731917   18.827877   22.937600 C.2        1 MOL1        -0.1504
     131    H1      18.769976   18.321484   22.973185 H          1 MOL1         0.0814
     132    C3      20.180362   19.366778   21.782847 C.2        1 MOL1        -0.1394
     133    H2      21.152186   19.855850   21.740618 H          1 MOL1         0.0817
     134    C4      19.394183   19.322632   20.492700 C.3        1 MOL1        -0.1849
     135    H3      18.938294   20.300594   20.300800 H          1 MOL1         0.0736
     136    H4      18.566596   18.612670   20.599470 H          1 MOL1         0.0736
     137    C5      20.275830   18.913560   19.296823 C.3        1 MOL1        -0.1866
     138    H5      21.035367   19.683283   19.114842 H          1 MOL1         0.0738
     139    H6      20.815317   17.988820   19.539058 H          1 MOL1         0.0738
     140    C6      19.440257   18.713141   18.017440 C.3        1 MOL1        -0.2879
     141    H7      18.906539   19.634295   17.749868 H          1 MOL1         0.0750
     142    H8      20.085547   18.436696   17.173829 H          1 MOL1         0.0750
     143    H9      18.699887   17.915529   18.152903 H          1 MOL1         0.0750
@<TRIPOS>BOND
    1     1     2    1
    2     1     3    1
    3     1     4    1
    4     4     5    1
    5     4     6    1
    6     6     7    1
    7     4     8    1
    8     8     9    1
    9     8    10    1
   10    10    11    1
   11     8    12    1
   12    12    13    1
   13    12    14    1
   14    14    15    1
   15     1    16    1
   16    14    16    1
   17    14    17    1
   18    17    18    1
   19    17    19    1
   20    17    20    1
   21    20    21    1
   22    22    23    1
   23    22    24    1
   24    22    25    1
   25    25    26    1
   26    25    27    1
   27    27    28    1
   28    25    29    1
   29    29    30    1
   30    29    31    1
   31    31    32    1
   32     3    33    1
   33    29    33    1
   34    33    34    1
   35    33    35    1
   36    35    36    1
   37    22    37    1
   38    35    37    1
   39    35    38    1
   40    38    39    1
   41    38    40    1
   42    38    41    1
   43    41    42    1
   44    43    44    1
   45    43    45    1
   46    43    46    1
   47    46    47    1
   48    46    48    1
   49    48    49    1
   50    46    50    1
   51    50    51    1
   52    50    52    1
   53    52    53    1
   54    24    54    1
   55    50    54    1
   56    54    55    1
   57    54    56    1
   58    56    57    1
   59    43    58    1
   60    56    58    1
   61    56    59    1
   62    59    60    1
   63    59    61    1
   64    59    62    1
   65    62    63    1
   66    64    65    1
   67    64    66    1
   68    64    67    1
   69    67    68    1
   70    67    69    1
   71    69    70    1
   72    67    71    1
   73    71    72    1
   74    71    73    1
   75    73    74    1
   76    45    75    1
   77    71    75    1
   78    75    76    1
   79    75    77    1
   80    77    78    1
   81    64    79    1
   82    77    79    1
   83    77    80    1
   84    80    81    1
   85    80    82    1
   86    80    83    1
   87    83    84    1
   88    85    86    1
   89    85    87    1
   90    85    88    1
   91    88    89    1
   92    88    90    1
   93    90    91    1
   94    88    92    1
   95    92    93    1
   96    92    94    1
   97    94    95    1
   98    66    96    1
   99    92    96    1
  100    96    97    1
  101    96    98    1
  102    98    99    1
  103    85   100    1
  104    98   100    1
  105    98   101    1
  106   101   102    1
  107   101   103    1
  108   101   104    1
  109   104   105    1
  110   106   107    1
  111    12   108    1
  112   106   108    1
  113   106   109    1
  114   109   110    1
  115   109   111    1
  116   111   112    1
  117   109   113    1
  118   113   114    1
  119   113   115    1
  120   115   116    1
  121    87   117    1
  122   113   117    1
  123   117   118    1
  124   117   119    1
  125   119   120    1
  126   106   121    1
  127   119   121    1
  128   119   122    1
  129   122   123    1
  130   122   124    1
  131   122   125    1
  132   125   126    1
  133   127   128    1
  134   127   129    2
  135   127   130    1
  136   130   131    1
  137   130   132    2
  138   132   133    1
  139   132   134    1
  140   134   135    1
  141   134   136    1
  142   134   137    1
  143   137   138    1
  144   137   139    1
  145   137   140    1
  146   140   141    1
  147   140   142    1
  148   140   143    1
@<TRIPOS>SUBSTRUCTURE
       1 MOL1            1 RESIDUE      1      MOL     
       2 MOL1          143 RESIDUE      1      MOL     
@<SCITEGIC>MOL_PROPERTY
feprocess Rank
SciTegic.value.IntegerValue
41

@<SCITEGIC>MOL_PROPERTY
Conf_Id
SciTegic.value.IntegerValue
854

@<SCITEGIC>MOL_PROPERTY
Probability
SciTegic.value.DoubleValue
0.05

@<SCITEGIC>MOL_PROPERTY
G
SciTegic.value.DoubleValue
499.115

@<SCITEGIC>MOL_PROPERTY
E
SciTegic.value.DoubleValue
316.811

@<SCITEGIC>MOL_PROPERTY
-TS
SciTegic.value.DoubleValue
182.303

@<SCITEGIC>MOL_PROPERTY
U+W
SciTegic.value.DoubleValue
190.723

@<SCITEGIC>MOL_PROPERTY
U
SciTegic.value.DoubleValue
264.821

@<SCITEGIC>MOL_PROPERTY
W
SciTegic.value.DoubleValue
-74.099

@<SCITEGIC>MOL_PROPERTY
W(PB)
SciTegic.value.DoubleValue
-80.025

@<SCITEGIC>MOL_PROPERTY
W(SA)
SciTegic.value.DoubleValue
5.926

@<SCITEGIC>MOL_PROPERTY
Valence
SciTegic.value.DoubleValue
148.917

@<SCITEGIC>MOL_PROPERTY
Coulomb
SciTegic.value.DoubleValue
142.409

@<SCITEGIC>MOL_PROPERTY
VdW
SciTegic.value.DoubleValue
-26.505

@<SCITEGIC>MOL_PROPERTY
VdW6
SciTegic.value.DoubleValue
-182.932

@<SCITEGIC>MOL_PROPERTY
VdW12
SciTegic.value.DoubleValue
156.427

@<SCITEGIC>MOL_PROPERTY
Bond
SciTegic.value.DoubleValue
4.865

@<SCITEGIC>MOL_PROPERTY
Angle
SciTegic.value.DoubleValue
15.664

@<SCITEGIC>MOL_PROPERTY
Pdih
SciTegic.value.DoubleValue
128.330

@<SCITEGIC>MOL_PROPERTY
Idih
SciTegic.value.DoubleValue
0.058

@<SCITEGIC>MOL_PROPERTY
Tether
SciTegic.value.DoubleValue
0.000

@<TRIPOS>MOLECULE
CD_guest-s19_fast_vm2_rndm.mol2 : feprocess host+ligand conformer 42
         143         148           2
SMALL
USER_CHARGES
 
@<TRIPOS>ATOM
       1    C1      16.194345   15.114666   21.484907 C.3        1 MOL1         0.2972
       2    H1      15.112251   14.950437   21.405526 H          1 MOL1         0.0751
       3    O1      16.499309   16.514417   21.675247 O.3        1 MOL1        -0.3740
       4    C2      16.752766   14.293419   22.674577 C.3        1 MOL1         0.1003
       5    H2      16.602989   13.234689   22.426996 H          1 MOL1         0.0783
       6    O2      16.033285   14.571802   23.885352 O.3        1 MOL1        -0.5519
       7    H3      16.356187   15.437519   24.249455 H          1 MOL1         0.3769
       8    C3      18.277328   14.528682   22.808795 C.3        1 MOL1         0.1053
       9    H4      18.453711   15.595902   22.991610 H          1 MOL1         0.0783
      10    O3      18.823065   13.759983   23.887660 O.3        1 MOL1        -0.5519
      11    H5      18.502415   14.216711   24.710038 H          1 MOL1         0.3769
      12    C4      18.978402   14.162584   21.480489 C.3        1 MOL1         0.1018
      13    H6      18.939556   13.072842   21.354337 H          1 MOL1         0.0783
      14    C5      18.308352   14.866816   20.267264 C.3        1 MOL1         0.1043
      15    H7      18.513412   15.939802   20.358908 H          1 MOL1         0.0783
      16    O4      16.870617   14.657668   20.291353 O.3        1 MOL1        -0.3740
      17    C6      18.848887   14.417687   18.887082 C.3        1 MOL1         0.0138
      18    H8      19.821116   14.898652   18.717394 H          1 MOL1         0.0794
      19    H9      18.168071   14.787293   18.108829 H          1 MOL1         0.0794
      20    O5      18.986537   12.996297   18.780868 O.3        1 MOL1        -0.5486
      21    H10     19.918420   12.778331   18.997794 H          1 MOL1         0.3769
      22    C7      14.953606   20.304334   20.711860 C.3        1 MOL1         0.2972
      23    H11     14.331396   21.117487   20.316398 H          1 MOL1         0.0751
      24    O6      16.202515   20.796877   21.232187 O.3        1 MOL1        -0.3740
      25    C8      14.219505   19.542899   21.846260 C.3        1 MOL1         0.1003
      26    H12     13.292934   19.134266   21.423513 H          1 MOL1         0.0783
      27    O7      13.887706   20.444857   22.915270 O.3        1 MOL1        -0.5519
      28    H13     14.734343   20.841024   23.240089 H          1 MOL1         0.3769
      29    C9      15.081881   18.350448   22.343754 C.3        1 MOL1         0.1053
      30    H14     15.983071   18.759512   22.815253 H          1 MOL1         0.0783
      31    O8      14.360267   17.565774   23.298721 O.3        1 MOL1        -0.5519
      32    H15     15.044684   17.274137   23.956953 H          1 MOL1         0.3769
      33    C10     15.526793   17.450805   21.159332 C.3        1 MOL1         0.1018
      34    H16     14.638234   16.938848   20.767527 H          1 MOL1         0.0783
      35    C11     16.171937   18.294609   20.021590 C.3        1 MOL1         0.1043
      36    H17     17.111911   18.720798   20.397222 H          1 MOL1         0.0783
      37    O9      15.260442   19.362286   19.663826 O.3        1 MOL1        -0.3740
      38    C12     16.507816   17.524633   18.719355 C.3        1 MOL1         0.0138
      39    H18     17.513554   17.100313   18.810909 H          1 MOL1         0.0794
      40    H19     16.549172   18.245806   17.892219 H          1 MOL1         0.0794
      41    O10     15.566876   16.489173   18.414844 O.3        1 MOL1        -0.5486
      42    H20     15.804786   15.716263   18.978542 H          1 MOL1         0.3769
      43    C13     18.476633   24.160757   21.773502 C.3        1 MOL1         0.2972
      44    H21     18.902769   25.162191   21.916345 H          1 MOL1         0.0751
      45    O11     19.501594   23.165745   21.592230 O.3        1 MOL1        -0.3740
      46    C14     17.640441   23.766200   23.012621 C.3        1 MOL1         0.1003
      47    H22     16.815744   24.485208   23.101784 H          1 MOL1         0.0783
      48    O12     18.450847   23.819149   24.197688 O.3        1 MOL1        -0.5519
      49    H23     19.386834   23.688810   23.908379 H          1 MOL1         0.3769
      50    C15     17.032411   22.356830   22.833512 C.3        1 MOL1         0.1053
      51    H24     17.854805   21.633146   22.851817 H          1 MOL1         0.0783
      52    O13     16.134932   22.084731   23.914396 O.3        1 MOL1        -0.5519
      53    H25     16.637365   22.321538   24.725314 H          1 MOL1         0.3769
      54    C16     16.292306   22.212119   21.479499 C.3        1 MOL1         0.1018
      55    H26     15.303068   22.680160   21.570550 H          1 MOL1         0.0783
      56    C17     17.073782   22.824744   20.280449 C.3        1 MOL1         0.1043
      57    H27     17.902971   22.144362   20.048758 H          1 MOL1         0.0783
      58    O14     17.614011   24.128562   20.618806 O.3        1 MOL1        -0.3740
      59    C18     16.228902   22.966353   18.991798 C.3        1 MOL1         0.0138
      60    H28     16.041587   21.963498   18.584801 H          1 MOL1         0.0794
      61    H29     16.818060   23.515393   18.244945 H          1 MOL1         0.0794
      62    O15     14.984194   23.633925   19.233138 O.3        1 MOL1        -0.5486
      63    H30     14.540112   23.759342   18.366201 H          1 MOL1         0.3769
      64    C19     23.525033   22.728960   20.652434 C.3        1 MOL1         0.2972
      65    H31     24.559939   22.861461   20.311819 H          1 MOL1         0.0751
      66    O16     23.242603   21.342459   20.944088 O.3        1 MOL1        -0.3740
      67    C20     23.223407   23.614498   21.894751 C.3        1 MOL1         0.1003
      68    H32     23.335720   24.658938   21.575828 H          1 MOL1         0.0783
      69    O17     24.132619   23.369687   22.977094 O.3        1 MOL1        -0.5519
      70    H33     23.960879   22.445480   23.288696 H          1 MOL1         0.3769
      71    C21     21.758039   23.416839   22.352325 C.3        1 MOL1         0.1053
      72    H34     21.637765   22.379735   22.694760 H          1 MOL1         0.0783
      73    O18     21.456236   24.318965   23.422489 O.3        1 MOL1        -0.5519
      74    H35     22.228284   24.267600   24.028640 H          1 MOL1         0.3769
      75    C22     20.785043   23.658004   21.172842 C.3        1 MOL1         0.1018
      76    H36     20.764829   24.734264   20.957016 H          1 MOL1         0.0783
      77    C23     21.203107   22.889598   19.886632 C.3        1 MOL1         0.1043
      78    H37     21.060309   21.816646   20.060557 H          1 MOL1         0.0783
      79    O19     22.605666   23.144078   19.615295 O.3        1 MOL1        -0.3740
      80    C24     20.375667   23.241863   18.622114 C.3        1 MOL1         0.0138
      81    H38     19.526154   22.550414   18.560144 H          1 MOL1         0.0794
      82    H39     20.997061   23.057266   17.735682 H          1 MOL1         0.0794
      83    O20     19.893428   24.591103   18.611587 O.3        1 MOL1        -0.5486
      84    H40     19.136792   24.631362   19.242034 H          1 MOL1         0.3769
      85    C25     24.881050   17.684668   21.987075 C.3        1 MOL1         0.2972
      86    H41     25.522977   16.853022   22.304549 H          1 MOL1         0.0751
      87    O21     23.641304   17.212929   21.421162 O.3        1 MOL1        -0.3740
      88    C26     24.576628   18.621971   23.184996 C.3        1 MOL1         0.1003
      89    H42     25.538181   19.020989   23.533426 H          1 MOL1         0.0783
      90    O22     23.938878   17.927276   24.268733 O.3        1 MOL1        -0.5519
      91    H43     24.022577   16.960812   24.084539 H          1 MOL1         0.3769
      92    C27     23.698253   19.811228   22.739735 C.3        1 MOL1         0.1053
      93    H44     22.718734   19.411986   22.449384 H          1 MOL1         0.0783
      94    O23     23.549563   20.706598   23.845537 O.3        1 MOL1        -0.5519
      95    H45     23.315142   20.120499   24.600204 H          1 MOL1         0.3769
      96    C28     24.301590   20.545630   21.514842 C.3        1 MOL1         0.1018
      97    H46     25.147152   21.160210   21.850255 H          1 MOL1         0.0783
      98    C29     24.771817   19.558936   20.407652 C.3        1 MOL1         0.1043
      99    H47     23.878098   19.140264   19.926366 H          1 MOL1         0.0783
     100    O24     25.549966   18.476767   20.982534 O.3        1 MOL1        -0.3740
     101    C30     25.614047   20.234158   19.298811 C.3        1 MOL1         0.0138
     102    H48     24.951272   20.872933   18.699480 H          1 MOL1         0.0794
     103    H49     26.005221   19.453873   18.632263 H          1 MOL1         0.0794
     104    O25     26.688369   21.017149   19.834618 O.3        1 MOL1        -0.5486
     105    H50     27.222311   21.346910   19.079063 H          1 MOL1         0.3769
     106    C31     21.379512   13.732893   21.250078 C.3        1 MOL1         0.2972
     107    H51     21.002737   12.712747   21.105192 H          1 MOL1         0.0751
     108    O26     20.326055   14.654151   21.587796 O.3        1 MOL1        -0.3740
     109    C32     22.405743   13.761389   22.406526 C.3        1 MOL1         0.1003
     110    H52     23.236445   13.101375   22.124507 H          1 MOL1         0.0783
     111    O27     21.812837   13.280441   23.623550 O.3        1 MOL1        -0.5519
     112    H53     20.883833   13.624117   23.652441 H          1 MOL1         0.3769
     113    C33     22.975920   15.186355   22.609236 C.3        1 MOL1         0.1053
     114    H54     22.167880   15.829479   22.985803 H          1 MOL1         0.0783
     115    O28     24.032173   15.111894   23.572826 O.3        1 MOL1        -0.5519
     116    H55     23.696369   14.496204   24.264120 H          1 MOL1         0.3769
     117    C34     23.492255   15.786400   21.271285 C.3        1 MOL1         0.1018
     118    H56     24.445684   15.310560   21.009079 H          1 MOL1         0.0783
     119    C35     22.485734   15.583348   20.103806 C.3        1 MOL1         0.1043
     120    H57     21.619509   16.231510   20.282384 H          1 MOL1         0.0783
     121    O29     22.040116   14.205382   20.057858 O.3        1 MOL1        -0.3740
     122    C36     23.053754   15.972898   18.716663 C.3        1 MOL1         0.0138
     123    H58     23.113525   17.068116   18.660008 H          1 MOL1         0.0794
     124    H59     22.343261   15.647495   17.945389 H          1 MOL1         0.0794
     125    O30     24.345300   15.405651   18.465799 O.3        1 MOL1        -0.5486
     126    H60     24.993762   15.898343   19.013379 H          1 MOL1         0.3769
     127    C1      17.796143   16.866629   25.241858 C.2        1 MOL1         0.6173
     128    O1      18.100623   15.806510   25.754123 O.co2      1 MOL1        -0.6755
     129    O2      16.643919   17.144698   24.961243 O.co2      1 MOL1        -0.6755
     130    C2      18.906071   17.734393   24.765371 C.2        1 MOL1        -0.1504
     131    H1      19.909138   17.347011   24.927926 H          1 MOL1         0.0814
     132    C3      18.727757   18.913059   24.127356 C.2        1 MOL1        -0.1394
     133    H2      17.730829   19.313655   23.958888 H          1 MOL1         0.0817
     134    C4      19.866537   19.737813   23.567139 C.3        1 MOL1        -0.1849
     135    H3      20.826205   19.374417   23.957390 H          1 MOL1         0.0736
     136    H4      19.772857   20.777235   23.907333 H          1 MOL1         0.0736
     137    C5      19.893415   19.704498   22.022554 C.3        1 MOL1        -0.1866
     138    H5      18.965825   20.129837   21.619565 H          1 MOL1         0.0738
     139    H6      20.712076   20.341884   21.671342 H          1 MOL1         0.0738
     140    C6      20.085448   18.280620   21.463761 C.3        1 MOL1        -0.2879
     141    H7      19.231546   17.643429   21.723819 H          1 MOL1         0.0750
     142    H8      20.178725   18.300379   20.371117 H          1 MOL1         0.0750
     143    H9      20.988845   17.820458   21.881287 H          1 MOL1         0.0750
@<TRIPOS>BOND
    1     1     2    1
    2     1     3    1
    3     1     4    1
    4     4     5    1
    5     4     6    1
    6     6     7    1
    7     4     8    1
    8     8     9    1
    9     8    10    1
   10    10    11    1
   11     8    12    1
   12    12    13    1
   13    12    14    1
   14    14    15    1
   15     1    16    1
   16    14    16    1
   17    14    17    1
   18    17    18    1
   19    17    19    1
   20    17    20    1
   21    20    21    1
   22    22    23    1
   23    22    24    1
   24    22    25    1
   25    25    26    1
   26    25    27    1
   27    27    28    1
   28    25    29    1
   29    29    30    1
   30    29    31    1
   31    31    32    1
   32     3    33    1
   33    29    33    1
   34    33    34    1
   35    33    35    1
   36    35    36    1
   37    22    37    1
   38    35    37    1
   39    35    38    1
   40    38    39    1
   41    38    40    1
   42    38    41    1
   43    41    42    1
   44    43    44    1
   45    43    45    1
   46    43    46    1
   47    46    47    1
   48    46    48    1
   49    48    49    1
   50    46    50    1
   51    50    51    1
   52    50    52    1
   53    52    53    1
   54    24    54    1
   55    50    54    1
   56    54    55    1
   57    54    56    1
   58    56    57    1
   59    43    58    1
   60    56    58    1
   61    56    59    1
   62    59    60    1
   63    59    61    1
   64    59    62    1
   65    62    63    1
   66    64    65    1
   67    64    66    1
   68    64    67    1
   69    67    68    1
   70    67    69    1
   71    69    70    1
   72    67    71    1
   73    71    72    1
   74    71    73    1
   75    73    74    1
   76    45    75    1
   77    71    75    1
   78    75    76    1
   79    75    77    1
   80    77    78    1
   81    64    79    1
   82    77    79    1
   83    77    80    1
   84    80    81    1
   85    80    82    1
   86    80    83    1
   87    83    84    1
   88    85    86    1
   89    85    87    1
   90    85    88    1
   91    88    89    1
   92    88    90    1
   93    90    91    1
   94    88    92    1
   95    92    93    1
   96    92    94    1
   97    94    95    1
   98    66    96    1
   99    92    96    1
  100    96    97    1
  101    96    98    1
  102    98    99    1
  103    85   100    1
  104    98   100    1
  105    98   101    1
  106   101   102    1
  107   101   103    1
  108   101   104    1
  109   104   105    1
  110   106   107    1
  111    12   108    1
  112   106   108    1
  113   106   109    1
  114   109   110    1
  115   109   111    1
  116   111   112    1
  117   109   113    1
  118   113   114    1
  119   113   115    1
  120   115   116    1
  121    87   117    1
  122   113   117    1
  123   117   118    1
  124   117   119    1
  125   119   120    1
  126   106   121    1
  127   119   121    1
  128   119   122    1
  129   122   123    1
  130   122   124    1
  131   122   125    1
  132   125   126    1
  133   127   128    1
  134   127   129    2
  135   127   130    1
  136   130   131    1
  137   130   132    2
  138   132   133    1
  139   132   134    1
  140   134   135    1
  141   134   136    1
  142   134   137    1
  143   137   138    1
  144   137   139    1
  145   137   140    1
  146   140   141    1
  147   140   142    1
  148   140   143    1
@<TRIPOS>SUBSTRUCTURE
       1 MOL1            1 RESIDUE      1      MOL     
       2 MOL1          143 RESIDUE      1      MOL     
@<SCITEGIC>MOL_PROPERTY
feprocess Rank
SciTegic.value.IntegerValue
42

@<SCITEGIC>MOL_PROPERTY
Conf_Id
SciTegic.value.IntegerValue
232

@<SCITEGIC>MOL_PROPERTY
Probability
SciTegic.value.DoubleValue
0.05

@<SCITEGIC>MOL_PROPERTY
G
SciTegic.value.DoubleValue
499.127

@<SCITEGIC>MOL_PROPERTY
E
SciTegic.value.DoubleValue
315.497

@<SCITEGIC>MOL_PROPERTY
-TS
SciTegic.value.DoubleValue
183.630

@<SCITEGIC>MOL_PROPERTY
U+W
SciTegic.value.DoubleValue
189.409

@<SCITEGIC>MOL_PROPERTY
U
SciTegic.value.DoubleValue
267.598

@<SCITEGIC>MOL_PROPERTY
W
SciTegic.value.DoubleValue
-78.189

@<SCITEGIC>MOL_PROPERTY
W(PB)
SciTegic.value.DoubleValue
-84.261

@<SCITEGIC>MOL_PROPERTY
W(SA)
SciTegic.value.DoubleValue
6.072

@<SCITEGIC>MOL_PROPERTY
Valence
SciTegic.value.DoubleValue
151.081

@<SCITEGIC>MOL_PROPERTY
Coulomb
SciTegic.value.DoubleValue
139.802

@<SCITEGIC>MOL_PROPERTY
VdW
SciTegic.value.DoubleValue
-23.286

@<SCITEGIC>MOL_PROPERTY
VdW6
SciTegic.value.DoubleValue
-182.599

@<SCITEGIC>MOL_PROPERTY
VdW12
SciTegic.value.DoubleValue
159.314

@<SCITEGIC>MOL_PROPERTY
Bond
SciTegic.value.DoubleValue
5.059

@<SCITEGIC>MOL_PROPERTY
Angle
SciTegic.value.DoubleValue
14.789

@<SCITEGIC>MOL_PROPERTY
Pdih
SciTegic.value.DoubleValue
131.168

@<SCITEGIC>MOL_PROPERTY
Idih
SciTegic.value.DoubleValue
0.066

@<SCITEGIC>MOL_PROPERTY
Tether
SciTegic.value.DoubleValue
0.000

@<TRIPOS>MOLECULE
CD_guest-s19_fast_vm2_rndm.mol2 : feprocess host+ligand conformer 43
         143         148           2
SMALL
USER_CHARGES
 
@<TRIPOS>ATOM
       1    C1      16.103670   15.127790   21.602373 C.3        1 MOL1         0.2972
       2    H1      15.025203   14.926259   21.620536 H          1 MOL1         0.0751
       3    O1      16.375417   16.544721   21.678113 O.3        1 MOL1        -0.3740
       4    C2      16.781525   14.406629   22.793008 C.3        1 MOL1         0.1003
       5    H2      16.669508   13.328841   22.618065 H          1 MOL1         0.0783
       6    O2      16.132482   14.725631   24.032478 O.3        1 MOL1        -0.5519
       7    H3      16.443320   15.623617   24.321508 H          1 MOL1         0.3769
       8    C3      18.297091   14.722849   22.804128 C.3        1 MOL1         0.1053
       9    H4      18.432103   15.806695   22.910194 H          1 MOL1         0.0783
      10    O3      18.949277   14.043920   23.884757 O.3        1 MOL1        -0.5519
      11    H5      18.639911   14.505789   24.708821 H          1 MOL1         0.3769
      12    C4      18.924783   14.304500   21.453838 C.3        1 MOL1         0.1018
      13    H6      18.967467   13.207888   21.417541 H          1 MOL1         0.0783
      14    C5      18.123950   14.853460   20.237504 C.3        1 MOL1         0.1043
      15    H7      18.295310   15.937049   20.192988 H          1 MOL1         0.0783
      16    O4      16.700161   14.606788   20.394884 O.3        1 MOL1        -0.3740
      17    C6      18.572517   14.253342   18.883123 C.3        1 MOL1         0.0138
      18    H8      19.564251   14.654307   18.634536 H          1 MOL1         0.0794
      19    H9      17.879400   14.591023   18.101221 H          1 MOL1         0.0794
      20    O5      18.621552   12.821458   18.918196 O.3        1 MOL1        -0.5486
      21    H10     18.852063   12.509197   18.016261 H          1 MOL1         0.3769
      22    C7      14.763557   20.238028   20.562632 C.3        1 MOL1         0.2972
      23    H11     14.139457   21.054938   20.178138 H          1 MOL1         0.0751
      24    O6      16.097708   20.695420   20.874299 O.3        1 MOL1        -0.3740
      25    C8      14.121616   19.577393   21.811967 C.3        1 MOL1         0.1003
      26    H12     13.179107   19.118757   21.486638 H          1 MOL1         0.0783
      27    O7      13.824365   20.553075   22.821135 O.3        1 MOL1        -0.5519
      28    H13     14.690619   20.836734   23.205111 H          1 MOL1         0.3769
      29    C9      15.042430   18.441223   22.334302 C.3        1 MOL1         0.1053
      30    H14     15.995467   18.885874   22.650429 H          1 MOL1         0.0783
      31    O8      14.443042   17.766647   23.445440 O.3        1 MOL1        -0.5519
      32    H15     15.203687   17.500174   24.026641 H          1 MOL1         0.3769
      33    C10     15.331097   17.420268   21.199754 C.3        1 MOL1         0.1018
      34    H16     14.401888   16.871010   21.000124 H          1 MOL1         0.0783
      35    C11     15.802846   18.123922   19.890141 C.3        1 MOL1         0.1043
      36    H17     16.800947   18.542481   20.065376 H          1 MOL1         0.0783
      37    O9      14.887266   19.201194   19.566125 O.3        1 MOL1        -0.3740
      38    C12     15.912434   17.213770   18.640251 C.3        1 MOL1         0.0138
      39    H18     16.917003   16.776738   18.612471 H          1 MOL1         0.0794
      40    H19     15.820576   17.842144   17.744306 H          1 MOL1         0.0794
      41    O10     14.930909   16.172104   18.607906 O.3        1 MOL1        -0.5486
      42    H20     15.286903   15.436733   19.158957 H          1 MOL1         0.3769
      43    C13     18.505479   23.925210   21.720825 C.3        1 MOL1         0.2972
      44    H21     18.952261   24.899736   21.956427 H          1 MOL1         0.0751
      45    O11     19.503436   22.957250   21.344481 O.3        1 MOL1        -0.3740
      46    C14     17.735373   23.379572   22.945876 C.3        1 MOL1         0.1003
      47    H22     16.924743   24.086811   23.164528 H          1 MOL1         0.0783
      48    O12     18.591529   23.273193   24.095467 O.3        1 MOL1        -0.5519
      49    H23     19.480123   23.611796   23.826795 H          1 MOL1         0.3769
      50    C15     17.102544   22.008427   22.619177 C.3        1 MOL1         0.1053
      51    H24     17.913096   21.288476   22.457080 H          1 MOL1         0.0783
      52    O13     16.311311   21.598054   23.736668 O.3        1 MOL1        -0.5519
      53    H25     16.900524   21.725587   24.514042 H          1 MOL1         0.3769
      54    C16     16.253671   22.057603   21.321504 C.3        1 MOL1         0.1018
      55    H26     15.290009   22.535046   21.542868 H          1 MOL1         0.0783
      56    C17     16.974619   22.809283   20.164247 C.3        1 MOL1         0.1043
      57    H27     17.772760   22.155849   19.789010 H          1 MOL1         0.0783
      58    O14     17.567211   24.048689   20.631689 O.3        1 MOL1        -0.3740
      59    C18     16.047604   23.127443   18.966971 C.3        1 MOL1         0.0138
      60    H28     15.799259   22.185257   18.459793 H          1 MOL1         0.0794
      61    H29     16.601523   23.747927   18.249779 H          1 MOL1         0.0794
      62    O15     14.844602   23.790530   19.375643 O.3        1 MOL1        -0.5486
      63    H30     14.343403   24.025354   18.564283 H          1 MOL1         0.3769
      64    C19     23.659707   22.735257   20.985477 C.3        1 MOL1         0.2972
      65    H31     24.710464   22.934638   20.741977 H          1 MOL1         0.0751
      66    O16     23.466864   21.400837   21.484363 O.3        1 MOL1        -0.3740
      67    C20     23.150081   23.708901   22.078992 C.3        1 MOL1         0.1003
      68    H32     23.254582   24.728445   21.685658 H          1 MOL1         0.0783
      69    O17     23.929069   23.584251   23.280095 O.3        1 MOL1        -0.5519
      70    H33     24.006713   22.617774   23.484066 H          1 MOL1         0.3769
      71    C21     21.649523   23.463327   22.380710 C.3        1 MOL1         0.1053
      72    H34     21.549197   22.472159   22.843960 H          1 MOL1         0.0783
      73    O18     21.185120   24.471323   23.284596 O.3        1 MOL1        -0.5519
      74    H35     21.903862   24.564898   23.950314 H          1 MOL1         0.3769
      75    C22     20.816888   23.473890   21.071111 C.3        1 MOL1         0.1018
      76    H36     20.773268   24.499362   20.681680 H          1 MOL1         0.0783
      77    C23     21.434326   22.548629   19.990591 C.3        1 MOL1         0.1043
      78    H37     21.356610   21.511146   20.339834 H          1 MOL1         0.0783
      79    O19     22.829940   22.895372   19.812891 O.3        1 MOL1        -0.3740
      80    C24     20.712584   22.610939   18.620309 C.3        1 MOL1         0.0138
      81    H38     19.838998   21.947061   18.661695 H          1 MOL1         0.0794
      82    H39     21.384690   22.208867   17.850703 H          1 MOL1         0.0794
      83    O20     20.290030   23.934194   18.267851 O.3        1 MOL1        -0.5486
      84    H40     19.557167   24.175650   18.876602 H          1 MOL1         0.3769
      85    C25     25.102844   17.691717   21.982564 C.3        1 MOL1         0.2972
      86    H41     25.720548   16.793636   22.113333 H          1 MOL1         0.0751
      87    O21     23.710428   17.359798   21.820618 O.3        1 MOL1        -0.3740
      88    C26     25.243928   18.608729   23.219558 C.3        1 MOL1         0.1003
      89    H42     26.294646   18.919340   23.287184 H          1 MOL1         0.0783
      90    O22     24.878228   17.897612   24.412745 O.3        1 MOL1        -0.5519
      91    H43     24.315223   17.137233   24.127587 H          1 MOL1         0.3769
      92    C27     24.375714   19.876068   23.055706 C.3        1 MOL1         0.1053
      93    H44     23.324138   19.564476   23.092752 H          1 MOL1         0.0783
      94    O23     24.640413   20.784856   24.129165 O.3        1 MOL1        -0.5519
      95    H45     24.613207   20.230868   24.941008 H          1 MOL1         0.3769
      96    C28     24.628933   20.582426   21.699364 C.3        1 MOL1         0.1018
      97    H46     25.548722   21.175649   21.779252 H          1 MOL1         0.0783
      98    C29     24.712307   19.598750   20.496337 C.3        1 MOL1         0.1043
      99    H47     23.689073   19.270779   20.277420 H          1 MOL1         0.0783
     100    O24     25.519742   18.437902   20.821570 O.3        1 MOL1        -0.3740
     101    C30     25.272869   20.232121   19.199636 C.3        1 MOL1         0.0138
     102    H48     24.567640   20.993648   18.840711 H          1 MOL1         0.0794
     103    H49     25.321775   19.452295   18.427950 H          1 MOL1         0.0794
     104    O25     26.570925   20.810779   19.387372 O.3        1 MOL1        -0.5486
     105    H50     26.471820   21.624371   19.922842 H          1 MOL1         0.3769
     106    C31     21.306481   14.057644   20.937310 C.3        1 MOL1         0.2972
     107    H51     20.937031   13.088598   20.577810 H          1 MOL1         0.0751
     108    O26     20.235077   14.899538   21.406405 O.3        1 MOL1        -0.3740
     109    C32     22.303758   13.868661   22.110842 C.3        1 MOL1         0.1003
     110    H52     23.142215   13.268245   21.734716 H          1 MOL1         0.0783
     111    O27     21.689346   13.178053   23.210163 O.3        1 MOL1        -0.5519
     112    H53     20.810851   13.606719   23.376614 H          1 MOL1         0.3769
     113    C33     22.866377   15.235943   22.573455 C.3        1 MOL1         0.1053
     114    H54     22.042494   15.820946   23.005748 H          1 MOL1         0.0783
     115    O28     23.884280   15.030625   23.558994 O.3        1 MOL1        -0.5519
     116    H55     23.513972   14.355630   24.170683 H          1 MOL1         0.3769
     117    C34     23.442404   16.021024   21.369393 C.3        1 MOL1         0.1018
     118    H56     24.353975   15.514884   21.024924 H          1 MOL1         0.0783
     119    C35     22.434713   16.095494   20.189133 C.3        1 MOL1         0.1043
     120    H57     21.570160   16.693357   20.500175 H          1 MOL1         0.0783
     121    O29     21.994471   14.753175   19.873061 O.3        1 MOL1        -0.3740
     122    C36     22.992237   16.750537   18.898599 C.3        1 MOL1         0.0138
     123    H58     22.784975   17.826860   18.938543 H          1 MOL1         0.0794
     124    H59     22.435192   16.355927   18.038442 H          1 MOL1         0.0794
     125    O30     24.397321   16.536241   18.713126 O.3        1 MOL1        -0.5486
     126    H60     24.868312   17.080094   19.387067 H          1 MOL1         0.3769
     127    C1      18.008235   17.034576   25.230212 C.2        1 MOL1         0.6173
     128    O1      16.873653   17.316637   24.886385 O.co2      1 MOL1        -0.6755
     129    O2      18.267066   16.020056   25.848445 O.co2      1 MOL1        -0.6755
     130    C2      19.157463   17.826254   24.715854 C.2        1 MOL1        -0.1504
     131    H1      20.145196   17.456643   24.980592 H          1 MOL1         0.0814
     132    C3      19.026905   18.915323   23.927013 C.2        1 MOL1        -0.1394
     133    H2      18.041604   19.280802   23.645331 H          1 MOL1         0.0817
     134    C4      20.201099   19.664909   23.334096 C.3        1 MOL1        -0.1849
     135    H3      21.033318   19.679487   24.050054 H          1 MOL1         0.0736
     136    H4      19.932987   20.713173   23.158120 H          1 MOL1         0.0736
     137    C5      20.674696   19.018026   22.015126 C.3        1 MOL1        -0.1866
     138    H5      21.556381   19.550991   21.642994 H          1 MOL1         0.0738
     139    H6      20.990027   17.987806   22.221701 H          1 MOL1         0.0738
     140    C6      19.586053   19.016682   20.921665 C.3        1 MOL1        -0.2879
     141    H7      19.220718   20.033304   20.728307 H          1 MOL1         0.0750
     142    H8      19.978288   18.607771   19.982533 H          1 MOL1         0.0750
     143    H9      18.734368   18.397897   21.230387 H          1 MOL1         0.0750
@<TRIPOS>BOND
    1     1     2    1
    2     1     3    1
    3     1     4    1
    4     4     5    1
    5     4     6    1
    6     6     7    1
    7     4     8    1
    8     8     9    1
    9     8    10    1
   10    10    11    1
   11     8    12    1
   12    12    13    1
   13    12    14    1
   14    14    15    1
   15     1    16    1
   16    14    16    1
   17    14    17    1
   18    17    18    1
   19    17    19    1
   20    17    20    1
   21    20    21    1
   22    22    23    1
   23    22    24    1
   24    22    25    1
   25    25    26    1
   26    25    27    1
   27    27    28    1
   28    25    29    1
   29    29    30    1
   30    29    31    1
   31    31    32    1
   32     3    33    1
   33    29    33    1
   34    33    34    1
   35    33    35    1
   36    35    36    1
   37    22    37    1
   38    35    37    1
   39    35    38    1
   40    38    39    1
   41    38    40    1
   42    38    41    1
   43    41    42    1
   44    43    44    1
   45    43    45    1
   46    43    46    1
   47    46    47    1
   48    46    48    1
   49    48    49    1
   50    46    50    1
   51    50    51    1
   52    50    52    1
   53    52    53    1
   54    24    54    1
   55    50    54    1
   56    54    55    1
   57    54    56    1
   58    56    57    1
   59    43    58    1
   60    56    58    1
   61    56    59    1
   62    59    60    1
   63    59    61    1
   64    59    62    1
   65    62    63    1
   66    64    65    1
   67    64    66    1
   68    64    67    1
   69    67    68    1
   70    67    69    1
   71    69    70    1
   72    67    71    1
   73    71    72    1
   74    71    73    1
   75    73    74    1
   76    45    75    1
   77    71    75    1
   78    75    76    1
   79    75    77    1
   80    77    78    1
   81    64    79    1
   82    77    79    1
   83    77    80    1
   84    80    81    1
   85    80    82    1
   86    80    83    1
   87    83    84    1
   88    85    86    1
   89    85    87    1
   90    85    88    1
   91    88    89    1
   92    88    90    1
   93    90    91    1
   94    88    92    1
   95    92    93    1
   96    92    94    1
   97    94    95    1
   98    66    96    1
   99    92    96    1
  100    96    97    1
  101    96    98    1
  102    98    99    1
  103    85   100    1
  104    98   100    1
  105    98   101    1
  106   101   102    1
  107   101   103    1
  108   101   104    1
  109   104   105    1
  110   106   107    1
  111    12   108    1
  112   106   108    1
  113   106   109    1
  114   109   110    1
  115   109   111    1
  116   111   112    1
  117   109   113    1
  118   113   114    1
  119   113   115    1
  120   115   116    1
  121    87   117    1
  122   113   117    1
  123   117   118    1
  124   117   119    1
  125   119   120    1
  126   106   121    1
  127   119   121    1
  128   119   122    1
  129   122   123    1
  130   122   124    1
  131   122   125    1
  132   125   126    1
  133   127   128    1
  134   127   129    2
  135   127   130    1
  136   130   131    1
  137   130   132    2
  138   132   133    1
  139   132   134    1
  140   134   135    1
  141   134   136    1
  142   134   137    1
  143   137   138    1
  144   137   139    1
  145   137   140    1
  146   140   141    1
  147   140   142    1
  148   140   143    1
@<TRIPOS>SUBSTRUCTURE
       1 MOL1            1 RESIDUE      1      MOL     
       2 MOL1          143 RESIDUE      1      MOL     
@<SCITEGIC>MOL_PROPERTY
feprocess Rank
SciTegic.value.IntegerValue
43

@<SCITEGIC>MOL_PROPERTY
Conf_Id
SciTegic.value.IntegerValue
19

@<SCITEGIC>MOL_PROPERTY
Probability
SciTegic.value.DoubleValue
0.05

@<SCITEGIC>MOL_PROPERTY
G
SciTegic.value.DoubleValue
499.134

@<SCITEGIC>MOL_PROPERTY
E
SciTegic.value.DoubleValue
315.269

@<SCITEGIC>MOL_PROPERTY
-TS
SciTegic.value.DoubleValue
183.865

@<SCITEGIC>MOL_PROPERTY
U+W
SciTegic.value.DoubleValue
189.181

@<SCITEGIC>MOL_PROPERTY
U
SciTegic.value.DoubleValue
267.247

@<SCITEGIC>MOL_PROPERTY
W
SciTegic.value.DoubleValue
-78.066

@<SCITEGIC>MOL_PROPERTY
W(PB)
SciTegic.value.DoubleValue
-84.095

@<SCITEGIC>MOL_PROPERTY
W(SA)
SciTegic.value.DoubleValue
6.028

@<SCITEGIC>MOL_PROPERTY
Valence
SciTegic.value.DoubleValue
150.989

@<SCITEGIC>MOL_PROPERTY
Coulomb
SciTegic.value.DoubleValue
139.842

@<SCITEGIC>MOL_PROPERTY
VdW
SciTegic.value.DoubleValue
-23.584

@<SCITEGIC>MOL_PROPERTY
VdW6
SciTegic.value.DoubleValue
-181.993

@<SCITEGIC>MOL_PROPERTY
VdW12
SciTegic.value.DoubleValue
158.410

@<SCITEGIC>MOL_PROPERTY
Bond
SciTegic.value.DoubleValue
4.992

@<SCITEGIC>MOL_PROPERTY
Angle
SciTegic.value.DoubleValue
14.709

@<SCITEGIC>MOL_PROPERTY
Pdih
SciTegic.value.DoubleValue
131.218

@<SCITEGIC>MOL_PROPERTY
Idih
SciTegic.value.DoubleValue
0.070

@<SCITEGIC>MOL_PROPERTY
Tether
SciTegic.value.DoubleValue
0.000

@<TRIPOS>MOLECULE
CD_guest-s19_fast_vm2_rndm.mol2 : feprocess host+ligand conformer 44
         143         148           2
SMALL
USER_CHARGES
 
@<TRIPOS>ATOM
       1    C1      16.157956   15.017922   21.831241 C.3        1 MOL1         0.2972
       2    H1      15.089241   14.855741   22.020151 H          1 MOL1         0.0751
       3    O1      16.494277   16.417906   21.816552 O.3        1 MOL1        -0.3740
       4    C2      16.994530   14.348995   22.945341 C.3        1 MOL1         0.1003
       5    H2      16.796140   13.270117   22.909867 H          1 MOL1         0.0783
       6    O2      16.592324   14.863064   24.225161 O.3        1 MOL1        -0.5519
       7    H3      16.408345   15.826468   24.105694 H          1 MOL1         0.3769
       8    C3      18.509020   14.563221   22.698122 C.3        1 MOL1         0.1053
       9    H4      18.737291   15.625605   22.858751 H          1 MOL1         0.0783
      10    O3      19.266655   13.765086   23.612748 O.3        1 MOL1        -0.5519
      11    H5      19.330252   14.294838   24.453103 H          1 MOL1         0.3769
      12    C4      18.917972   14.190872   21.247448 C.3        1 MOL1         0.1018
      13    H6      19.022534   13.099575   21.184659 H          1 MOL1         0.0783
      14    C5      17.917538   14.696436   20.167647 C.3        1 MOL1         0.1043
      15    H7      18.063110   15.779323   20.060134 H          1 MOL1         0.0783
      16    O4      16.546449   14.443805   20.567749 O.3        1 MOL1        -0.3740
      17    C6      18.145862   14.068529   18.771877 C.3        1 MOL1         0.0138
      18    H8      19.082618   14.467735   18.359821 H          1 MOL1         0.0794
      19    H9      17.333635   14.389500   18.106059 H          1 MOL1         0.0794
      20    O5      18.209565   12.637908   18.825480 O.3        1 MOL1        -0.5486
      21    H10     18.281106   12.307836   17.903356 H          1 MOL1         0.3769
      22    C7      14.853736   20.209027   21.391159 C.3        1 MOL1         0.2972
      23    H11     14.179870   21.066940   21.268859 H          1 MOL1         0.0751
      24    O6      16.234908   20.615083   21.384964 O.3        1 MOL1        -0.3740
      25    C8      14.577586   19.512980   22.746115 C.3        1 MOL1         0.1003
      26    H12     13.536328   19.165540   22.735528 H          1 MOL1         0.0783
      27    O7      14.758963   20.437645   23.830541 O.3        1 MOL1        -0.5519
      28    H13     15.335743   21.164407   23.489725 H          1 MOL1         0.3769
      29    C9      15.493903   18.279702   22.923561 C.3        1 MOL1         0.1053
      30    H14     16.531878   18.629915   23.012194 H          1 MOL1         0.0783
      31    O8      15.120147   17.573368   24.110841 O.3        1 MOL1        -0.5519
      32    H15     15.029707   18.268269   24.800273 H          1 MOL1         0.3769
      33    C10     15.399240   17.340941   21.696425 C.3        1 MOL1         0.1018
      34    H16     14.423815   16.837733   21.717017 H          1 MOL1         0.0783
      35    C11     15.564279   18.108303   20.354451 C.3        1 MOL1         0.1043
      36    H17     16.596763   18.467704   20.301764 H          1 MOL1         0.0783
      37    O9      14.665005   19.247226   20.327948 O.3        1 MOL1        -0.3740
      38    C12     15.333164   17.255341   19.080775 C.3        1 MOL1         0.0138
      39    H18     16.278454   16.764965   18.815475 H          1 MOL1         0.0794
      40    H19     15.079537   17.927388   18.250037 H          1 MOL1         0.0794
      41    O10     14.312803   16.264152   19.241434 O.3        1 MOL1        -0.5486
      42    H20     14.743225   15.480430   19.652225 H          1 MOL1         0.3769
      43    C13     18.680953   23.813333   20.302904 C.3        1 MOL1         0.2972
      44    H21     19.100458   24.722104   19.852402 H          1 MOL1         0.0751
      45    O11     19.687550   23.049901   20.994458 O.3        1 MOL1        -0.3740
      46    C14     17.540127   24.151843   21.301540 C.3        1 MOL1         0.1003
      47    H22     16.753020   24.663332   20.732423 H          1 MOL1         0.0783
      48    O12     17.992354   25.020045   22.351987 O.3        1 MOL1        -0.5519
      49    H23     18.745953   24.564547   22.806333 H          1 MOL1         0.3769
      50    C15     16.933117   22.854786   21.892842 C.3        1 MOL1         0.1053
      51    H24     17.701013   22.363039   22.506705 H          1 MOL1         0.0783
      52    O13     15.797414   23.176758   22.702748 O.3        1 MOL1        -0.5519
      53    H25     16.078085   23.948174   23.243867 H          1 MOL1         0.3769
      54    C16     16.517743   21.879770   20.763843 C.3        1 MOL1         0.1018
      55    H26     15.640506   22.291648   20.247680 H          1 MOL1         0.0783
      56    C17     17.659388   21.664148   19.733136 C.3        1 MOL1         0.1043
      57    H27     18.482280   21.137673   20.233308 H          1 MOL1         0.0783
      58    O14     18.124124   22.959619   19.277207 O.3        1 MOL1        -0.3740
      59    C18     17.268446   20.809799   18.499007 C.3        1 MOL1         0.0138
      60    H28     17.476520   19.757028   18.726471 H          1 MOL1         0.0794
      61    H29     17.922822   21.086190   17.661593 H          1 MOL1         0.0794
      62    O15     15.894665   20.955306   18.118257 O.3        1 MOL1        -0.5486
      63    H30     15.355451   20.476172   18.789768 H          1 MOL1         0.3769
      64    C19     23.569227   22.904550   22.240263 C.3        1 MOL1         0.2972
      65    H31     24.608933   23.047494   22.561571 H          1 MOL1         0.0751
      66    O16     23.250981   21.514321   22.046662 O.3        1 MOL1        -0.3740
      67    C20     22.601742   23.467115   23.306527 C.3        1 MOL1         0.1003
      68    H32     22.774894   24.548835   23.377393 H          1 MOL1         0.0783
      69    O17     22.850011   22.859537   24.584546 O.3        1 MOL1        -0.5519
      70    H33     23.250140   21.971637   24.409764 H          1 MOL1         0.3769
      71    C21     21.134775   23.241474   22.875912 C.3        1 MOL1         0.1053
      72    H34     20.939473   22.162116   22.899762 H          1 MOL1         0.0783
      73    O18     20.264154   23.902210   23.799547 O.3        1 MOL1        -0.5519
      74    H35     20.601437   23.647421   24.687539 H          1 MOL1         0.3769
      75    C22     20.867373   23.746899   21.434316 C.3        1 MOL1         0.1018
      76    H36     20.720634   24.834748   21.463309 H          1 MOL1         0.0783
      77    C23     21.996577   23.377745   20.426376 C.3        1 MOL1         0.1043
      78    H37     21.887018   22.312223   20.187528 H          1 MOL1         0.0783
      79    O19     23.311857   23.595614   21.001366 O.3        1 MOL1        -0.3740
      80    C24     21.912073   24.150205   19.088464 C.3        1 MOL1         0.0138
      81    H38     21.043229   23.781134   18.526869 H          1 MOL1         0.0794
      82    H39     22.806141   23.919554   18.493655 H          1 MOL1         0.0794
      83    O20     21.797353   25.564476   19.287658 O.3        1 MOL1        -0.5486
      84    H40     21.832617   25.993906   18.405039 H          1 MOL1         0.3769
      85    C25     24.970396   17.750028   21.668907 C.3        1 MOL1         0.2972
      86    H41     25.672722   16.914627   21.552163 H          1 MOL1         0.0751
      87    O21     23.604660   17.291501   21.681177 O.3        1 MOL1        -0.3740
      88    C26     25.240808   18.475116   23.011324 C.3        1 MOL1         0.1003
      89    H42     26.275196   18.841766   22.986428 H          1 MOL1         0.0783
      90    O22     25.087488   17.568239   24.114132 O.3        1 MOL1        -0.5519
      91    H43     24.421897   16.892002   23.840206 H          1 MOL1         0.3769
      92    C27     24.306344   19.695886   23.179930 C.3        1 MOL1         0.1053
      93    H44     23.277458   19.330352   23.284537 H          1 MOL1         0.0783
      94    O23     24.678189   20.430413   24.350428 O.3        1 MOL1        -0.5519
      95    H45     24.814675   19.747392   25.044632 H          1 MOL1         0.3769
      96    C28     24.362560   20.612037   21.935695 C.3        1 MOL1         0.1018
      97    H46     25.327804   21.134988   21.920445 H          1 MOL1         0.0783
      98    C29     24.183041   19.813289   20.616444 C.3        1 MOL1         0.1043
      99    H47     23.159292   19.422244   20.601805 H          1 MOL1         0.0783
     100    O24     25.118115   18.703892   20.591843 O.3        1 MOL1        -0.3740
     101    C30     24.357465   20.649983   19.321624 C.3        1 MOL1         0.0138
     102    H48     23.378026   21.052750   19.034482 H          1 MOL1         0.0794
     103    H49     24.674157   19.980512   18.510652 H          1 MOL1         0.0794
     104    O25     25.290955   21.727120   19.462649 O.3        1 MOL1        -0.5486
     105    H50     24.832559   22.440593   19.963979 H          1 MOL1         0.3769
     106    C31     21.224872   14.106941   20.382633 C.3        1 MOL1         0.2972
     107    H51     20.844160   13.199847   19.895784 H          1 MOL1         0.0751
     108    O26     20.163731   14.868674   20.993691 O.3        1 MOL1        -0.3740
     109    C32     22.281342   13.763479   21.468032 C.3        1 MOL1         0.1003
     110    H52     23.123911   13.275084   20.962084 H          1 MOL1         0.0783
     111    O27     21.744171   12.857213   22.443022 O.3        1 MOL1        -0.5519
     112    H53     20.961892   13.296520   22.860811 H          1 MOL1         0.3769
     113    C33     22.812088   15.069500   22.116857 C.3        1 MOL1         0.1053
     114    H54     21.970016   15.568626   22.611094 H          1 MOL1         0.0783
     115    O28     23.839585   14.797006   23.077718 O.3        1 MOL1        -0.5519
     116    H55     23.363060   14.685533   23.942122 H          1 MOL1         0.3769
     117    C34     23.351253   16.031413   21.029859 C.3        1 MOL1         0.1018
     118    H56     24.264228   15.597790   20.601150 H          1 MOL1         0.0783
     119    C35     22.305093   16.252667   19.900275 C.3        1 MOL1         0.1043
     120    H57     21.448145   16.789997   20.325804 H          1 MOL1         0.0783
     121    O29     21.865784   14.961094   19.408864 O.3        1 MOL1        -0.3740
     122    C36     22.803501   17.085137   18.691220 C.3        1 MOL1         0.0138
     123    H58     22.607475   18.144911   18.892362 H          1 MOL1         0.0794
     124    H59     22.201788   16.816660   17.812712 H          1 MOL1         0.0794
     125    O30     24.194668   16.896408   18.407532 O.3        1 MOL1        -0.5486
     126    H60     24.696644   17.413859   19.079560 H          1 MOL1         0.3769
     127    C1      21.121389   15.999819   25.197433 C.2        1 MOL1         0.6173
     128    O1      20.049566   15.569484   25.581570 O.co2      1 MOL1        -0.6755
     129    O2      22.163916   15.379834   25.297704 O.co2      1 MOL1        -0.6755
     130    C2      21.177868   17.314911   24.503987 C.2        1 MOL1        -0.1504
     131    H1      22.168196   17.641115   24.203718 H          1 MOL1         0.0814
     132    C3      20.096655   18.078569   24.226089 C.2        1 MOL1        -0.1394
     133    H2      19.095892   17.754831   24.510779 H          1 MOL1         0.0817
     134    C4      20.177097   19.412520   23.511236 C.3        1 MOL1        -0.1849
     135    H3      20.961467   20.025127   23.974818 H          1 MOL1         0.0736
     136    H4      19.237383   19.965189   23.643948 H          1 MOL1         0.0736
     137    C5      20.476848   19.262433   22.003309 C.3        1 MOL1        -0.1866
     138    H5      20.629686   20.256381   21.562982 H          1 MOL1         0.0738
     139    H6      21.412136   18.708669   21.871215 H          1 MOL1         0.0738
     140    C6      19.343996   18.543518   21.247315 C.3        1 MOL1        -0.2879
     141    H7      18.392448   19.054797   21.421682 H          1 MOL1         0.0750
     142    H8      19.539932   18.527760   20.168270 H          1 MOL1         0.0750
     143    H9      19.240321   17.507415   21.590715 H          1 MOL1         0.0750
@<TRIPOS>BOND
    1     1     2    1
    2     1     3    1
    3     1     4    1
    4     4     5    1
    5     4     6    1
    6     6     7    1
    7     4     8    1
    8     8     9    1
    9     8    10    1
   10    10    11    1
   11     8    12    1
   12    12    13    1
   13    12    14    1
   14    14    15    1
   15     1    16    1
   16    14    16    1
   17    14    17    1
   18    17    18    1
   19    17    19    1
   20    17    20    1
   21    20    21    1
   22    22    23    1
   23    22    24    1
   24    22    25    1
   25    25    26    1
   26    25    27    1
   27    27    28    1
   28    25    29    1
   29    29    30    1
   30    29    31    1
   31    31    32    1
   32     3    33    1
   33    29    33    1
   34    33    34    1
   35    33    35    1
   36    35    36    1
   37    22    37    1
   38    35    37    1
   39    35    38    1
   40    38    39    1
   41    38    40    1
   42    38    41    1
   43    41    42    1
   44    43    44    1
   45    43    45    1
   46    43    46    1
   47    46    47    1
   48    46    48    1
   49    48    49    1
   50    46    50    1
   51    50    51    1
   52    50    52    1
   53    52    53    1
   54    24    54    1
   55    50    54    1
   56    54    55    1
   57    54    56    1
   58    56    57    1
   59    43    58    1
   60    56    58    1
   61    56    59    1
   62    59    60    1
   63    59    61    1
   64    59    62    1
   65    62    63    1
   66    64    65    1
   67    64    66    1
   68    64    67    1
   69    67    68    1
   70    67    69    1
   71    69    70    1
   72    67    71    1
   73    71    72    1
   74    71    73    1
   75    73    74    1
   76    45    75    1
   77    71    75    1
   78    75    76    1
   79    75    77    1
   80    77    78    1
   81    64    79    1
   82    77    79    1
   83    77    80    1
   84    80    81    1
   85    80    82    1
   86    80    83    1
   87    83    84    1
   88    85    86    1
   89    85    87    1
   90    85    88    1
   91    88    89    1
   92    88    90    1
   93    90    91    1
   94    88    92    1
   95    92    93    1
   96    92    94    1
   97    94    95    1
   98    66    96    1
   99    92    96    1
  100    96    97    1
  101    96    98    1
  102    98    99    1
  103    85   100    1
  104    98   100    1
  105    98   101    1
  106   101   102    1
  107   101   103    1
  108   101   104    1
  109   104   105    1
  110   106   107    1
  111    12   108    1
  112   106   108    1
  113   106   109    1
  114   109   110    1
  115   109   111    1
  116   111   112    1
  117   109   113    1
  118   113   114    1
  119   113   115    1
  120   115   116    1
  121    87   117    1
  122   113   117    1
  123   117   118    1
  124   117   119    1
  125   119   120    1
  126   106   121    1
  127   119   121    1
  128   119   122    1
  129   122   123    1
  130   122   124    1
  131   122   125    1
  132   125   126    1
  133   127   128    1
  134   127   129    2
  135   127   130    1
  136   130   131    1
  137   130   132    2
  138   132   133    1
  139   132   134    1
  140   134   135    1
  141   134   136    1
  142   134   137    1
  143   137   138    1
  144   137   139    1
  145   137   140    1
  146   140   141    1
  147   140   142    1
  148   140   143    1
@<TRIPOS>SUBSTRUCTURE
       1 MOL1            1 RESIDUE      1      MOL     
       2 MOL1          143 RESIDUE      1      MOL     
@<SCITEGIC>MOL_PROPERTY
feprocess Rank
SciTegic.value.IntegerValue
44

@<SCITEGIC>MOL_PROPERTY
Conf_Id
SciTegic.value.IntegerValue
563

@<SCITEGIC>MOL_PROPERTY
Probability
SciTegic.value.DoubleValue
0.04

@<SCITEGIC>MOL_PROPERTY
G
SciTegic.value.DoubleValue
499.207

@<SCITEGIC>MOL_PROPERTY
E
SciTegic.value.DoubleValue
317.176

@<SCITEGIC>MOL_PROPERTY
-TS
SciTegic.value.DoubleValue
182.031

@<SCITEGIC>MOL_PROPERTY
U+W
SciTegic.value.DoubleValue
191.088

@<SCITEGIC>MOL_PROPERTY
U
SciTegic.value.DoubleValue
270.857

@<SCITEGIC>MOL_PROPERTY
W
SciTegic.value.DoubleValue
-79.769

@<SCITEGIC>MOL_PROPERTY
W(PB)
SciTegic.value.DoubleValue
-85.742

@<SCITEGIC>MOL_PROPERTY
W(SA)
SciTegic.value.DoubleValue
5.973

@<SCITEGIC>MOL_PROPERTY
Valence
SciTegic.value.DoubleValue
152.527

@<SCITEGIC>MOL_PROPERTY
Coulomb
SciTegic.value.DoubleValue
143.924

@<SCITEGIC>MOL_PROPERTY
VdW
SciTegic.value.DoubleValue
-25.594

@<SCITEGIC>MOL_PROPERTY
VdW6
SciTegic.value.DoubleValue
-182.662

@<SCITEGIC>MOL_PROPERTY
VdW12
SciTegic.value.DoubleValue
157.069

@<SCITEGIC>MOL_PROPERTY
Bond
SciTegic.value.DoubleValue
4.846

@<SCITEGIC>MOL_PROPERTY
Angle
SciTegic.value.DoubleValue
13.927

@<SCITEGIC>MOL_PROPERTY
Pdih
SciTegic.value.DoubleValue
133.746

@<SCITEGIC>MOL_PROPERTY
Idih
SciTegic.value.DoubleValue
0.008

@<SCITEGIC>MOL_PROPERTY
Tether
SciTegic.value.DoubleValue
0.000

@<TRIPOS>MOLECULE
CD_guest-s19_fast_vm2_rndm.mol2 : feprocess host+ligand conformer 45
         143         148           2
SMALL
USER_CHARGES
 
@<TRIPOS>ATOM
       1    C1      16.432816   15.370217   20.537551 C.3        1 MOL1         0.2972
       2    H1      15.420055   15.340412   20.116184 H          1 MOL1         0.0751
       3    O1      16.776384   16.699675   20.985091 O.3        1 MOL1        -0.3740
       4    C2      16.574892   14.362503   21.708596 C.3        1 MOL1         0.1003
       5    H2      16.381830   13.362323   21.300185 H          1 MOL1         0.0783
       6    O2      15.610208   14.634235   22.737355 O.3        1 MOL1        -0.5519
       7    H3      15.864677   15.498479   23.146543 H          1 MOL1         0.3769
       8    C3      18.024167   14.373856   22.263112 C.3        1 MOL1         0.1053
       9    H4      18.194859   15.352333   22.727361 H          1 MOL1         0.0783
      10    O3      18.188855   13.336204   23.238142 O.3        1 MOL1        -0.5519
      11    H5      18.768785   13.710145   23.952793 H          1 MOL1         0.3769
      12    C4      19.071307   14.186115   21.130060 C.3        1 MOL1         0.1018
      13    H6      19.037742   13.135714   20.813039 H          1 MOL1         0.0783
      14    C5      18.784153   15.108840   19.904284 C.3        1 MOL1         0.1043
      15    H7      18.993540   16.145930   20.196456 H          1 MOL1         0.0783
      16    O4      17.389990   14.987331   19.531363 O.3        1 MOL1        -0.3740
      17    C6      19.613268   14.820903   18.625848 C.3        1 MOL1         0.0138
      18    H8      20.519111   15.435638   18.646313 H          1 MOL1         0.0794
      19    H9      19.034227   15.156099   17.754902 H          1 MOL1         0.0794
      20    O5      19.964000   13.441604   18.471767 O.3        1 MOL1        -0.5486
      21    H10     20.764805   13.294007   19.026916 H          1 MOL1         0.3769
      22    C7      15.017966   20.368384   21.909408 C.3        1 MOL1         0.2972
      23    H11     14.315060   21.166983   22.180411 H          1 MOL1         0.0751
      24    O6      16.316099   20.900784   21.595760 O.3        1 MOL1        -0.3740
      25    C8      15.181517   19.388635   23.097168 C.3        1 MOL1         0.1003
      26    H12     14.192763   18.966032   23.318290 H          1 MOL1         0.0783
      27    O7      15.669421   20.086674   24.252809 O.3        1 MOL1        -0.5519
      28    H13     16.248382   20.806514   23.912822 H          1 MOL1         0.3769
      29    C9      16.130103   18.223166   22.732332 C.3        1 MOL1         0.1053
      30    H14     17.139389   18.631268   22.586508 H          1 MOL1         0.0783
      31    O8      16.137490   17.278794   23.807671 O.3        1 MOL1        -0.5519
      32    H15     16.273692   17.819772   24.616906 H          1 MOL1         0.3769
      33    C10     15.685031   17.539086   21.416081 C.3        1 MOL1         0.1018
      34    H16     14.772694   16.959488   21.610442 H          1 MOL1         0.0783
      35    C11     15.422071   18.574609   20.286949 C.3        1 MOL1         0.1043
      36    H17     16.391334   19.003906   20.003923 H          1 MOL1         0.0783
      37    O9      14.547772   19.633997   20.758924 O.3        1 MOL1        -0.3740
      38    C12     14.795279   17.961434   19.011808 C.3        1 MOL1         0.0138
      39    H18     15.551484   17.337429   18.516470 H          1 MOL1         0.0794
      40    H19     14.540172   18.774879   18.319381 H          1 MOL1         0.0794
      41    O10     13.633630   17.176032   19.307010 O.3        1 MOL1        -0.5486
      42    H20     13.240208   16.892767   18.453029 H          1 MOL1         0.3769
      43    C13     18.422363   24.213215   20.445165 C.3        1 MOL1         0.2972
      44    H21     18.837851   25.150015   20.054085 H          1 MOL1         0.0751
      45    O11     19.464875   23.284790   20.827282 O.3        1 MOL1        -0.3740
      46    C14     17.463232   24.472638   21.635043 C.3        1 MOL1         0.1003
      47    H22     16.598640   25.019546   21.236511 H          1 MOL1         0.0783
      48    O12     18.072636   25.270412   22.659312 O.3        1 MOL1        -0.5519
      49    H23     18.778817   24.713023   23.071848 H          1 MOL1         0.3769
      50    C15     16.951201   23.124836   22.197467 C.3        1 MOL1         0.1053
      51    H24     17.805565   22.583608   22.626154 H          1 MOL1         0.0783
      52    O13     15.975476   23.367340   23.215620 O.3        1 MOL1        -0.5519
      53    H25     16.361316   24.068575   23.785466 H          1 MOL1         0.3769
      54    C16     16.335952   22.243570   21.078100 C.3        1 MOL1         0.1018
      55    H26     15.327234   22.620061   20.864907 H          1 MOL1         0.0783
      56    C17     17.170743   22.226535   19.760085 C.3        1 MOL1         0.1043
      57    H27     18.053615   21.599559   19.920541 H          1 MOL1         0.0783
      58    O14     17.617083   23.567768   19.433338 O.3        1 MOL1        -0.3740
      59    C18     16.439485   21.624915   18.530035 C.3        1 MOL1         0.0138
      60    H28     16.692646   20.559707   18.463286 H          1 MOL1         0.0794
      61    H29     16.836807   22.097736   17.621952 H          1 MOL1         0.0794
      62    O15     15.015152   21.774737   18.576454 O.3        1 MOL1        -0.5486
      63    H30     14.679885   21.153719   19.264739 H          1 MOL1         0.3769
      64    C19     23.310883   22.650557   22.145077 C.3        1 MOL1         0.2972
      65    H31     24.346080   22.708465   22.505826 H          1 MOL1         0.0751
      66    O16     22.961213   21.312648   21.745670 O.3        1 MOL1        -0.3740
      67    C20     22.337290   23.090017   23.260557 C.3        1 MOL1         0.1003
      68    H32     22.567566   24.135333   23.504317 H          1 MOL1         0.0783
      69    O17     22.508872   22.281419   24.436210 O.3        1 MOL1        -0.5519
      70    H33     23.164367   21.578211   24.206868 H          1 MOL1         0.3769
      71    C21     20.874439   23.021669   22.766018 C.3        1 MOL1         0.1053
      72    H34     20.620748   21.967001   22.597704 H          1 MOL1         0.0783
      73    O18     20.033866   23.557241   23.790382 O.3        1 MOL1        -0.5519
      74    H35     20.354601   23.129392   24.616792 H          1 MOL1         0.3769
      75    C22     20.678138   23.785890   21.425968 C.3        1 MOL1         0.1018
      76    H36     20.627615   24.862855   21.629534 H          1 MOL1         0.0783
      77    C23     21.805713   23.481838   20.395859 C.3        1 MOL1         0.1043
      78    H37     21.632171   22.469933   20.008611 H          1 MOL1         0.0783
      79    O19     23.116876   23.524598   21.014361 O.3        1 MOL1        -0.3740
      80    C24     21.807999   24.437789   19.178329 C.3        1 MOL1         0.0138
      81    H38     20.883557   24.282833   18.605593 H          1 MOL1         0.0794
      82    H39     22.643598   24.160355   18.521952 H          1 MOL1         0.0794
      83    O20     21.925234   25.814838   19.560217 O.3        1 MOL1        -0.5486
      84    H40     21.099483   26.080593   20.014738 H          1 MOL1         0.3769
      85    C25     24.917355   17.630166   21.281798 C.3        1 MOL1         0.2972
      86    H41     25.669698   16.869681   21.036644 H          1 MOL1         0.0751
      87    O21     23.659546   17.037914   21.656480 O.3        1 MOL1        -0.3740
      88    C26     25.384362   18.491965   22.484682 C.3        1 MOL1         0.1003
      89    H42     26.334394   18.964111   22.202787 H          1 MOL1         0.0783
      90    O22     25.591171   17.676588   23.649514 O.3        1 MOL1        -0.5519
      91    H43     24.858820   17.009443   23.675895 H          1 MOL1         0.3769
      92    C27     24.362287   19.617473   22.786111 C.3        1 MOL1         0.1053
      93    H44     23.426085   19.152363   23.122854 H          1 MOL1         0.0783
      94    O23     24.879698   20.468324   23.814346 O.3        1 MOL1        -0.5519
      95    H45     25.256995   19.853781   24.483606 H          1 MOL1         0.3769
      96    C28     24.068360   20.430009   21.499978 C.3        1 MOL1         0.1018
      97    H46     24.970931   20.986497   21.214452 H          1 MOL1         0.0783
      98    C29     23.661690   19.501675   20.328004 C.3        1 MOL1         0.1043
      99    H47     22.718960   19.005865   20.587534 H          1 MOL1         0.0783
     100    O24     24.695868   18.504428   20.150006 O.3        1 MOL1        -0.3740
     101    C30     23.427811   20.242784   18.986115 C.3        1 MOL1         0.0138
     102    H48     22.383227   20.579061   18.958073 H          1 MOL1         0.0794
     103    H49     23.554963   19.528305   18.162074 H          1 MOL1         0.0794
     104    O25     24.296622   21.368981   18.804992 O.3        1 MOL1        -0.5486
     105    H50     24.053396   22.037258   19.485438 H          1 MOL1         0.3769
     106    C31     21.423331   13.576208   21.525938 C.3        1 MOL1         0.2972
     107    H51     21.036270   12.552317   21.448643 H          1 MOL1         0.0751
     108    O26     20.351786   14.529797   21.706250 O.3        1 MOL1        -0.3740
     109    C32     22.405435   13.670267   22.719599 C.3        1 MOL1         0.1003
     110    H52     23.278939   13.057964   22.460820 H          1 MOL1         0.0783
     111    O27     21.828319   13.129934   23.919711 O.3        1 MOL1        -0.5519
     112    H53     21.218736   13.802002   24.318502 H          1 MOL1         0.3769
     113    C33     22.892700   15.132312   22.871099 C.3        1 MOL1         0.1053
     114    H54     22.021934   15.774458   23.043308 H          1 MOL1         0.0783
     115    O28     23.804193   15.264518   23.967711 O.3        1 MOL1        -0.5519
     116    H55     23.227845   15.223725   24.776575 H          1 MOL1         0.3769
     117    C34     23.560156   15.604588   21.558346 C.3        1 MOL1         0.1018
     118    H56     24.543451   15.123324   21.476596 H          1 MOL1         0.0783
     119    C35     22.695000   15.287329   20.303926 C.3        1 MOL1         0.1043
     120    H57     21.852102   15.990040   20.304616 H          1 MOL1         0.0783
     121    O29     22.173430   13.930532   20.344217 O.3        1 MOL1        -0.3740
     122    C36     23.457922   15.469831   18.969465 C.3        1 MOL1         0.0138
     123    H58     23.624471   16.542204   18.804404 H          1 MOL1         0.0794
     124    H59     22.824222   15.109486   18.148350 H          1 MOL1         0.0794
     125    O30     24.711815   14.776042   18.967079 O.3        1 MOL1        -0.5486
     126    H60     25.119326   14.900262   18.082460 H          1 MOL1         0.3769
     127    C1      20.448120   15.624379   25.286391 C.2        1 MOL1         0.6173
     128    O1      21.583574   15.577715   25.721700 O.co2      1 MOL1        -0.6755
     129    O2      19.724582   14.648012   25.247120 O.co2      1 MOL1        -0.6755
     130    C2      19.997730   16.824487   24.537615 C.2        1 MOL1        -0.1504
     131    H1      18.981209   16.791264   24.157441 H          1 MOL1         0.0814
     132    C3      20.794138   17.877087   24.248764 C.2        1 MOL1        -0.1394
     133    H2      21.825976   17.913312   24.596870 H          1 MOL1         0.0817
     134    C4      20.359628   19.009994   23.348799 C.3        1 MOL1        -0.1849
     135    H3      21.139010   19.781568   23.323989 H          1 MOL1         0.0736
     136    H4      19.454525   19.485595   23.749452 H          1 MOL1         0.0736
     137    C5      20.093031   18.488832   21.919887 C.3        1 MOL1        -0.1866
     138    H5      20.977127   17.956497   21.548128 H          1 MOL1         0.0738
     139    H6      19.275649   17.756592   21.943379 H          1 MOL1         0.0738
     140    C6      19.721598   19.628608   20.957401 C.3        1 MOL1        -0.2879
     141    H7      20.554235   20.331277   20.836481 H          1 MOL1         0.0750
     142    H8      19.455193   19.234692   19.968722 H          1 MOL1         0.0750
     143    H9      18.863422   20.181973   21.353131 H          1 MOL1         0.0750
@<TRIPOS>BOND
    1     1     2    1
    2     1     3    1
    3     1     4    1
    4     4     5    1
    5     4     6    1
    6     6     7    1
    7     4     8    1
    8     8     9    1
    9     8    10    1
   10    10    11    1
   11     8    12    1
   12    12    13    1
   13    12    14    1
   14    14    15    1
   15     1    16    1
   16    14    16    1
   17    14    17    1
   18    17    18    1
   19    17    19    1
   20    17    20    1
   21    20    21    1
   22    22    23    1
   23    22    24    1
   24    22    25    1
   25    25    26    1
   26    25    27    1
   27    27    28    1
   28    25    29    1
   29    29    30    1
   30    29    31    1
   31    31    32    1
   32     3    33    1
   33    29    33    1
   34    33    34    1
   35    33    35    1
   36    35    36    1
   37    22    37    1
   38    35    37    1
   39    35    38    1
   40    38    39    1
   41    38    40    1
   42    38    41    1
   43    41    42    1
   44    43    44    1
   45    43    45    1
   46    43    46    1
   47    46    47    1
   48    46    48    1
   49    48    49    1
   50    46    50    1
   51    50    51    1
   52    50    52    1
   53    52    53    1
   54    24    54    1
   55    50    54    1
   56    54    55    1
   57    54    56    1
   58    56    57    1
   59    43    58    1
   60    56    58    1
   61    56    59    1
   62    59    60    1
   63    59    61    1
   64    59    62    1
   65    62    63    1
   66    64    65    1
   67    64    66    1
   68    64    67    1
   69    67    68    1
   70    67    69    1
   71    69    70    1
   72    67    71    1
   73    71    72    1
   74    71    73    1
   75    73    74    1
   76    45    75    1
   77    71    75    1
   78    75    76    1
   79    75    77    1
   80    77    78    1
   81    64    79    1
   82    77    79    1
   83    77    80    1
   84    80    81    1
   85    80    82    1
   86    80    83    1
   87    83    84    1
   88    85    86    1
   89    85    87    1
   90    85    88    1
   91    88    89    1
   92    88    90    1
   93    90    91    1
   94    88    92    1
   95    92    93    1
   96    92    94    1
   97    94    95    1
   98    66    96    1
   99    92    96    1
  100    96    97    1
  101    96    98    1
  102    98    99    1
  103    85   100    1
  104    98   100    1
  105    98   101    1
  106   101   102    1
  107   101   103    1
  108   101   104    1
  109   104   105    1
  110   106   107    1
  111    12   108    1
  112   106   108    1
  113   106   109    1
  114   109   110    1
  115   109   111    1
  116   111   112    1
  117   109   113    1
  118   113   114    1
  119   113   115    1
  120   115   116    1
  121    87   117    1
  122   113   117    1
  123   117   118    1
  124   117   119    1
  125   119   120    1
  126   106   121    1
  127   119   121    1
  128   119   122    1
  129   122   123    1
  130   122   124    1
  131   122   125    1
  132   125   126    1
  133   127   128    1
  134   127   129    2
  135   127   130    1
  136   130   131    1
  137   130   132    2
  138   132   133    1
  139   132   134    1
  140   134   135    1
  141   134   136    1
  142   134   137    1
  143   137   138    1
  144   137   139    1
  145   137   140    1
  146   140   141    1
  147   140   142    1
  148   140   143    1
@<TRIPOS>SUBSTRUCTURE
       1 MOL1            1 RESIDUE      1      MOL     
       2 MOL1          143 RESIDUE      1      MOL     
@<SCITEGIC>MOL_PROPERTY
feprocess Rank
SciTegic.value.IntegerValue
45

@<SCITEGIC>MOL_PROPERTY
Conf_Id
SciTegic.value.IntegerValue
842

@<SCITEGIC>MOL_PROPERTY
Probability
SciTegic.value.DoubleValue
0.04

@<SCITEGIC>MOL_PROPERTY
G
SciTegic.value.DoubleValue
499.271

@<SCITEGIC>MOL_PROPERTY
E
SciTegic.value.DoubleValue
315.532

@<SCITEGIC>MOL_PROPERTY
-TS
SciTegic.value.DoubleValue
183.738

@<SCITEGIC>MOL_PROPERTY
U+W
SciTegic.value.DoubleValue
189.444

@<SCITEGIC>MOL_PROPERTY
U
SciTegic.value.DoubleValue
267.954

@<SCITEGIC>MOL_PROPERTY
W
SciTegic.value.DoubleValue
-78.510

@<SCITEGIC>MOL_PROPERTY
W(PB)
SciTegic.value.DoubleValue
-84.517

@<SCITEGIC>MOL_PROPERTY
W(SA)
SciTegic.value.DoubleValue
6.007

@<SCITEGIC>MOL_PROPERTY
Valence
SciTegic.value.DoubleValue
151.975

@<SCITEGIC>MOL_PROPERTY
Coulomb
SciTegic.value.DoubleValue
140.456

@<SCITEGIC>MOL_PROPERTY
VdW
SciTegic.value.DoubleValue
-24.477

@<SCITEGIC>MOL_PROPERTY
VdW6
SciTegic.value.DoubleValue
-184.397

@<SCITEGIC>MOL_PROPERTY
VdW12
SciTegic.value.DoubleValue
159.920

@<SCITEGIC>MOL_PROPERTY
Bond
SciTegic.value.DoubleValue
5.133

@<SCITEGIC>MOL_PROPERTY
Angle
SciTegic.value.DoubleValue
15.840

@<SCITEGIC>MOL_PROPERTY
Pdih
SciTegic.value.DoubleValue
130.876

@<SCITEGIC>MOL_PROPERTY
Idih
SciTegic.value.DoubleValue
0.126

@<SCITEGIC>MOL_PROPERTY
Tether
SciTegic.value.DoubleValue
0.000

@<TRIPOS>MOLECULE
CD_guest-s19_fast_vm2_rndm.mol2 : feprocess host+ligand conformer 46
         143         148           2
SMALL
USER_CHARGES
 
@<TRIPOS>ATOM
       1    C1      16.346434   15.512734   20.326474 C.3        1 MOL1         0.2972
       2    H1      15.360781   15.390491   19.859184 H          1 MOL1         0.0751
       3    O1      16.447629   16.758784   21.043486 O.3        1 MOL1        -0.3740
       4    C2      16.625850   14.367260   21.335980 C.3        1 MOL1         0.1003
       5    H2      16.590744   13.423362   20.776648 H          1 MOL1         0.0783
       6    O2      15.633009   14.331993   22.373254 O.3        1 MOL1        -0.5519
       7    H3      15.504263   15.260991   22.694491 H          1 MOL1         0.3769
       8    C3      18.044430   14.506664   21.944353 C.3        1 MOL1         0.1053
       9    H4      18.075790   15.424498   22.548313 H          1 MOL1         0.0783
      10    O3      18.325840   13.371228   22.769226 O.3        1 MOL1        -0.5519
      11    H5      17.503405   13.225665   23.289018 H          1 MOL1         0.3769
      12    C4      19.101040   14.627404   20.818739 C.3        1 MOL1         0.1018
      13    H6      19.170136   13.666241   20.292282 H          1 MOL1         0.0783
      14    C5      18.725809   15.732550   19.797278 C.3        1 MOL1         0.1043
      15    H7      18.752406   16.702302   20.308689 H          1 MOL1         0.0783
      16    O4      17.382445   15.484920   19.317250 O.3        1 MOL1        -0.3740
      17    C6      19.687644   15.829920   18.583722 C.3        1 MOL1         0.0138
      18    H8      20.503718   16.515549   18.843031 H          1 MOL1         0.0794
      19    H9      19.146952   16.284198   17.742872 H          1 MOL1         0.0794
      20    O5      20.237278   14.564871   18.192798 O.3        1 MOL1        -0.5486
      21    H10     20.860773   14.285754   18.902248 H          1 MOL1         0.3769
      22    C7      14.515081   20.335093   21.751814 C.3        1 MOL1         0.2972
      23    H11     13.809306   21.167261   21.867458 H          1 MOL1         0.0751
      24    O6      15.871015   20.752156   22.024003 O.3        1 MOL1        -0.3740
      25    C8      14.132076   19.191218   22.722343 C.3        1 MOL1         0.1003
      26    H12     13.159622   18.804444   22.391291 H          1 MOL1         0.0783
      27    O7      13.985640   19.676437   24.066683 O.3        1 MOL1        -0.5519
      28    H13     14.885653   19.789657   24.467952 H          1 MOL1         0.3769
      29    C9      15.158523   18.037914   22.602627 C.3        1 MOL1         0.1053
      30    H14     16.147161   18.421652   22.878702 H          1 MOL1         0.0783
      31    O8      14.802986   16.947275   23.461348 O.3        1 MOL1        -0.5519
      32    H15     14.981485   17.267430   24.385553 H          1 MOL1         0.3769
      33    C10     15.246801   17.549599   21.137107 C.3        1 MOL1         0.1018
      34    H16     14.345999   16.962551   20.914550 H          1 MOL1         0.0783
      35    C11     15.391985   18.722054   20.123545 C.3        1 MOL1         0.1043
      36    H17     16.413325   19.114469   20.216427 H          1 MOL1         0.0783
      37    O9      14.451120   19.790613   20.416061 O.3        1 MOL1        -0.3740
      38    C12     15.192831   18.287140   18.651196 C.3        1 MOL1         0.0138
      39    H18     16.055946   17.680208   18.346457 H          1 MOL1         0.0794
      40    H19     15.184160   19.182811   18.016239 H          1 MOL1         0.0794
      41    O10     13.984117   17.539298   18.468582 O.3        1 MOL1        -0.5486
      42    H20     13.892025   17.351165   17.509248 H          1 MOL1         0.3769
      43    C13     18.447026   24.014113   21.575035 C.3        1 MOL1         0.2972
      44    H21     18.861830   25.020269   21.432475 H          1 MOL1         0.0751
      45    O11     19.489417   23.020586   21.650572 O.3        1 MOL1        -0.3740
      46    C14     17.642101   23.971774   22.895024 C.3        1 MOL1         0.1003
      47    H22     16.847397   24.725625   22.827681 H          1 MOL1         0.0783
      48    O12     18.515985   24.299596   23.988420 O.3        1 MOL1        -0.5519
      49    H23     19.419562   23.997568   23.729525 H          1 MOL1         0.3769
      50    C15     16.969629   22.588555   23.091870 C.3        1 MOL1         0.1053
      51    H24     17.764772   21.854196   23.258947 H          1 MOL1         0.0783
      52    O13     16.088732   22.623879   24.222304 O.3        1 MOL1        -0.5519
      53    H25     16.167057   21.740500   24.670377 H          1 MOL1         0.3769
      54    C16     16.176185   22.151311   21.831523 C.3        1 MOL1         0.1018
      55    H26     15.266986   22.763508   21.770803 H          1 MOL1         0.0783
      56    C17     17.017550   22.325214   20.530832 C.3        1 MOL1         0.1043
      57    H27     17.835470   21.595267   20.564105 H          1 MOL1         0.0783
      58    O14     17.570128   23.665028   20.485762 O.3        1 MOL1        -0.3740
      59    C18     16.261736   22.099549   19.196550 C.3        1 MOL1         0.0138
      60    H28     16.326934   21.038762   18.930806 H          1 MOL1         0.0794
      61    H29     16.782882   22.651321   18.402697 H          1 MOL1         0.0794
      62    O15     14.889697   22.502546   19.247595 O.3        1 MOL1        -0.5486
      63    H30     14.386819   21.729523   19.592751 H          1 MOL1         0.3769
      64    C19     23.492240   22.456902   20.542389 C.3        1 MOL1         0.2972
      65    H31     24.489463   22.574919   20.099316 H          1 MOL1         0.0751
      66    O16     23.324969   21.153091   21.130090 O.3        1 MOL1        -0.3740
      67    C20     23.232572   23.529189   21.635580 C.3        1 MOL1         0.1003
      68    H32     23.312511   24.510860   21.150871 H          1 MOL1         0.0783
      69    O17     24.201526   23.452757   22.692704 O.3        1 MOL1        -0.5519
      70    H33     24.175672   22.528310   23.048931 H          1 MOL1         0.3769
      71    C21     21.797403   23.396562   22.205058 C.3        1 MOL1         0.1053
      72    H34     21.724534   22.440009   22.741773 H          1 MOL1         0.0783
      73    O18     21.536164   24.480415   23.102812 O.3        1 MOL1        -0.5519
      74    H35     22.338906   24.546565   23.666303 H          1 MOL1         0.3769
      75    C22     20.751195   23.393535   21.063505 C.3        1 MOL1         0.1018
      76    H36     20.718624   24.397235   20.619582 H          1 MOL1         0.0783
      77    C23     21.114741   22.363603   19.959354 C.3        1 MOL1         0.1043
      78    H37     21.046093   21.359160   20.391610 H          1 MOL1         0.0783
      79    O19     22.476053   22.608701   19.525503 O.3        1 MOL1        -0.3740
      80    C24     20.191509   22.380075   18.714312 C.3        1 MOL1         0.0138
      81    H38     19.344923   21.708162   18.900555 H          1 MOL1         0.0794
      82    H39     20.746006   21.960279   17.864500 H          1 MOL1         0.0794
      83    O20     19.705680   23.686949   18.386114 O.3        1 MOL1        -0.5486
      84    H40     18.978600   23.889631   19.019700 H          1 MOL1         0.3769
      85    C25     25.224647   17.603711   21.983858 C.3        1 MOL1         0.2972
      86    H41     25.910643   16.773475   22.192895 H          1 MOL1         0.0751
      87    O21     23.865904   17.153974   21.806429 O.3        1 MOL1        -0.3740
      88    C26     25.254979   18.636498   23.137814 C.3        1 MOL1         0.1003
      89    H42     26.266059   19.063112   23.169653 H          1 MOL1         0.0783
      90    O22     24.970001   18.022502   24.403700 O.3        1 MOL1        -0.5519
      91    H43     24.304112   17.306986   24.244224 H          1 MOL1         0.3769
      92    C27     24.264996   19.789502   22.853740 C.3        1 MOL1         0.1053
      93    H44     23.246669   19.378321   22.868840 H          1 MOL1         0.0783
      94    O23     24.397321   20.786009   23.872549 O.3        1 MOL1        -0.5519
      95    H45     24.415051   20.280487   24.716051 H          1 MOL1         0.3769
      96    C28     24.518947   20.418356   21.459707 C.3        1 MOL1         0.1018
      97    H46     25.397615   21.073306   21.529285 H          1 MOL1         0.0783
      98    C29     24.728981   19.354537   20.339867 C.3        1 MOL1         0.1043
      99    H47     23.752603   18.911925   20.104503 H          1 MOL1         0.0783
     100    O24     25.623303   18.301207   20.785510 O.3        1 MOL1        -0.3740
     101    C30     25.286405   19.944544   19.022425 C.3        1 MOL1         0.0138
     102    H48     24.496647   20.541540   18.546549 H          1 MOL1         0.0794
     103    H49     25.523740   19.116488   18.341173 H          1 MOL1         0.0794
     104    O25     26.446033   20.757895   19.240960 O.3        1 MOL1        -0.5486
     105    H50     26.789721   21.029150   18.361797 H          1 MOL1         0.3769
     106    C31     21.303381   13.930845   21.593751 C.3        1 MOL1         0.2972
     107    H51     20.819862   12.946499   21.543508 H          1 MOL1         0.0751
     108    O26     20.354199   14.998977   21.416336 O.3        1 MOL1        -0.3740
     109    C32     21.981438   14.115750   22.971062 C.3        1 MOL1         0.1003
     110    H52     22.756000   13.343469   23.064807 H          1 MOL1         0.0783
     111    O27     21.027420   13.961712   24.034384 O.3        1 MOL1        -0.5519
     112    H53     20.130410   13.967592   23.617829 H          1 MOL1         0.3769
     113    C33     22.667012   15.498126   23.055557 C.3        1 MOL1         0.1053
     114    H54     21.884684   16.268501   23.032119 H          1 MOL1         0.0783
     115    O28     23.390693   15.583295   24.285392 O.3        1 MOL1        -0.5519
     116    H55     22.773999   15.221918   24.961698 H          1 MOL1         0.3769
     117    C34     23.617911   15.735759   21.854684 C.3        1 MOL1         0.1018
     118    H56     24.536039   15.155188   22.009743 H          1 MOL1         0.0783
     119    C35     22.974244   15.349054   20.491420 C.3        1 MOL1         0.1043
     120    H57     22.225705   16.109774   20.247933 H          1 MOL1         0.0783
     121    O29     22.316490   14.057497   20.572435 O.3        1 MOL1        -0.3740
     122    C36     23.977520   15.324429   19.312779 C.3        1 MOL1         0.0138
     123    H58     24.286898   16.355290   19.092738 H          1 MOL1         0.0794
     124    H59     23.457436   14.945863   18.422745 H          1 MOL1         0.0794
     125    O30     25.130352   14.518766   19.585865 O.3        1 MOL1        -0.5486
     126    H60     25.747820   15.056253   20.125467 H          1 MOL1         0.3769
     127    C1      16.760708   18.924996   25.467904 C.2        1 MOL1         0.6173
     128    O1      16.000084   18.037928   25.802550 O.co2      1 MOL1        -0.6755
     129    O2      16.448528   20.101958   25.499684 O.co2      1 MOL1        -0.6755
     130    C2      17.990656   18.522546   24.738307 C.2        1 MOL1        -0.1504
     131    H1      18.097343   17.459260   24.536030 H          1 MOL1         0.0814
     132    C3      18.900194   19.403432   24.268351 C.2        1 MOL1        -0.1394
     133    H2      18.805751   20.467391   24.472369 H          1 MOL1         0.0817
     134    C4      20.046212   19.011107   23.368804 C.3        1 MOL1        -0.1849
     135    H3      20.347179   17.974449   23.568425 H          1 MOL1         0.0736
     136    H4      20.919767   19.644924   23.570215 H          1 MOL1         0.0736
     137    C5      19.614799   19.162465   21.896360 C.3        1 MOL1        -0.1866
     138    H5      18.683875   18.603964   21.727687 H          1 MOL1         0.0738
     139    H6      19.392640   20.216907   21.690325 H          1 MOL1         0.0738
     140    C6      20.698563   18.656213   20.930483 C.3        1 MOL1        -0.2879
     141    H7      21.638070   19.195512   21.082278 H          1 MOL1         0.0750
     142    H8      20.890973   17.594173   21.106559 H          1 MOL1         0.0750
     143    H9      20.387983   18.788683   19.886898 H          1 MOL1         0.0750
@<TRIPOS>BOND
    1     1     2    1
    2     1     3    1
    3     1     4    1
    4     4     5    1
    5     4     6    1
    6     6     7    1
    7     4     8    1
    8     8     9    1
    9     8    10    1
   10    10    11    1
   11     8    12    1
   12    12    13    1
   13    12    14    1
   14    14    15    1
   15     1    16    1
   16    14    16    1
   17    14    17    1
   18    17    18    1
   19    17    19    1
   20    17    20    1
   21    20    21    1
   22    22    23    1
   23    22    24    1
   24    22    25    1
   25    25    26    1
   26    25    27    1
   27    27    28    1
   28    25    29    1
   29    29    30    1
   30    29    31    1
   31    31    32    1
   32     3    33    1
   33    29    33    1
   34    33    34    1
   35    33    35    1
   36    35    36    1
   37    22    37    1
   38    35    37    1
   39    35    38    1
   40    38    39    1
   41    38    40    1
   42    38    41    1
   43    41    42    1
   44    43    44    1
   45    43    45    1
   46    43    46    1
   47    46    47    1
   48    46    48    1
   49    48    49    1
   50    46    50    1
   51    50    51    1
   52    50    52    1
   53    52    53    1
   54    24    54    1
   55    50    54    1
   56    54    55    1
   57    54    56    1
   58    56    57    1
   59    43    58    1
   60    56    58    1
   61    56    59    1
   62    59    60    1
   63    59    61    1
   64    59    62    1
   65    62    63    1
   66    64    65    1
   67    64    66    1
   68    64    67    1
   69    67    68    1
   70    67    69    1
   71    69    70    1
   72    67    71    1
   73    71    72    1
   74    71    73    1
   75    73    74    1
   76    45    75    1
   77    71    75    1
   78    75    76    1
   79    75    77    1
   80    77    78    1
   81    64    79    1
   82    77    79    1
   83    77    80    1
   84    80    81    1
   85    80    82    1
   86    80    83    1
   87    83    84    1
   88    85    86    1
   89    85    87    1
   90    85    88    1
   91    88    89    1
   92    88    90    1
   93    90    91    1
   94    88    92    1
   95    92    93    1
   96    92    94    1
   97    94    95    1
   98    66    96    1
   99    92    96    1
  100    96    97    1
  101    96    98    1
  102    98    99    1
  103    85   100    1
  104    98   100    1
  105    98   101    1
  106   101   102    1
  107   101   103    1
  108   101   104    1
  109   104   105    1
  110   106   107    1
  111    12   108    1
  112   106   108    1
  113   106   109    1
  114   109   110    1
  115   109   111    1
  116   111   112    1
  117   109   113    1
  118   113   114    1
  119   113   115    1
  120   115   116    1
  121    87   117    1
  122   113   117    1
  123   117   118    1
  124   117   119    1
  125   119   120    1
  126   106   121    1
  127   119   121    1
  128   119   122    1
  129   122   123    1
  130   122   124    1
  131   122   125    1
  132   125   126    1
  133   127   128    1
  134   127   129    2
  135   127   130    1
  136   130   131    1
  137   130   132    2
  138   132   133    1
  139   132   134    1
  140   134   135    1
  141   134   136    1
  142   134   137    1
  143   137   138    1
  144   137   139    1
  145   137   140    1
  146   140   141    1
  147   140   142    1
  148   140   143    1
@<TRIPOS>SUBSTRUCTURE
       1 MOL1            1 RESIDUE      1      MOL     
       2 MOL1          143 RESIDUE      1      MOL     
@<SCITEGIC>MOL_PROPERTY
feprocess Rank
SciTegic.value.IntegerValue
46

@<SCITEGIC>MOL_PROPERTY
Conf_Id
SciTegic.value.IntegerValue
633

@<SCITEGIC>MOL_PROPERTY
Probability
SciTegic.value.DoubleValue
0.04

@<SCITEGIC>MOL_PROPERTY
G
SciTegic.value.DoubleValue
499.296

@<SCITEGIC>MOL_PROPERTY
E
SciTegic.value.DoubleValue
316.438

@<SCITEGIC>MOL_PROPERTY
-TS
SciTegic.value.DoubleValue
182.858

@<SCITEGIC>MOL_PROPERTY
U+W
SciTegic.value.DoubleValue
190.350

@<SCITEGIC>MOL_PROPERTY
U
SciTegic.value.DoubleValue
269.244

@<SCITEGIC>MOL_PROPERTY
W
SciTegic.value.DoubleValue
-78.894

@<SCITEGIC>MOL_PROPERTY
W(PB)
SciTegic.value.DoubleValue
-84.930

@<SCITEGIC>MOL_PROPERTY
W(SA)
SciTegic.value.DoubleValue
6.036

@<SCITEGIC>MOL_PROPERTY
Valence
SciTegic.value.DoubleValue
153.226

@<SCITEGIC>MOL_PROPERTY
Coulomb
SciTegic.value.DoubleValue
139.442

@<SCITEGIC>MOL_PROPERTY
VdW
SciTegic.value.DoubleValue
-23.425

@<SCITEGIC>MOL_PROPERTY
VdW6
SciTegic.value.DoubleValue
-179.978

@<SCITEGIC>MOL_PROPERTY
VdW12
SciTegic.value.DoubleValue
156.553

@<SCITEGIC>MOL_PROPERTY
Bond
SciTegic.value.DoubleValue
5.031

@<SCITEGIC>MOL_PROPERTY
Angle
SciTegic.value.DoubleValue
14.268

@<SCITEGIC>MOL_PROPERTY
Pdih
SciTegic.value.DoubleValue
133.796

@<SCITEGIC>MOL_PROPERTY
Idih
SciTegic.value.DoubleValue
0.131

@<SCITEGIC>MOL_PROPERTY
Tether
SciTegic.value.DoubleValue
0.000

@<TRIPOS>MOLECULE
CD_guest-s19_fast_vm2_rndm.mol2 : feprocess host+ligand conformer 47
         143         148           2
SMALL
USER_CHARGES
 
@<TRIPOS>ATOM
       1    C1      16.148968   15.050490   21.302323 C.3        1 MOL1         0.2972
       2    H1      15.068904   14.895850   21.186194 H          1 MOL1         0.0751
       3    O1      16.454481   16.427272   21.620037 O.3        1 MOL1        -0.3740
       4    C2      16.681214   14.132859   22.430011 C.3        1 MOL1         0.1003
       5    H2      16.519447   13.097370   22.104090 H          1 MOL1         0.0783
       6    O2      15.961269   14.341414   23.654578 O.3        1 MOL1        -0.5519
       7    H3      16.300018   15.178561   24.067756 H          1 MOL1         0.3769
       8    C3      18.203026   14.337076   22.612823 C.3        1 MOL1         0.1053
       9    H4      18.374541   15.375872   22.915119 H          1 MOL1         0.0783
      10    O3      18.699800   13.444361   23.615178 O.3        1 MOL1        -0.5519
      11    H5      18.330758   13.785010   24.473124 H          1 MOL1         0.3769
      12    C4      18.955875   14.136497   21.276205 C.3        1 MOL1         0.1018
      13    H6      18.993691   13.067233   21.032441 H          1 MOL1         0.0783
      14    C5      18.284250   14.916257   20.110414 C.3        1 MOL1         0.1043
      15    H7      18.468251   15.983520   20.276989 H          1 MOL1         0.0783
      16    O4      16.850203   14.688320   20.091455 O.3        1 MOL1        -0.3740
      17    C6      18.865743   14.574508   18.716253 C.3        1 MOL1         0.0138
      18    H8      19.859404   15.033952   18.630085 H          1 MOL1         0.0794
      19    H9      18.228768   15.035178   17.949660 H          1 MOL1         0.0794
      20    O5      18.965330   13.164091   18.487106 O.3        1 MOL1        -0.5486
      21    H10     19.741716   12.838209   18.991235 H          1 MOL1         0.3769
      22    C7      14.842833   20.268494   21.030470 C.3        1 MOL1         0.2972
      23    H11     14.158780   21.084908   20.766425 H          1 MOL1         0.0751
      24    O6      16.125690   20.768589   21.456274 O.3        1 MOL1        -0.3740
      25    C8      14.246809   19.453713   22.203799 C.3        1 MOL1         0.1003
      26    H12     13.267244   19.074466   21.886058 H          1 MOL1         0.0783
      27    O7      14.074827   20.319509   23.338923 O.3        1 MOL1        -0.5519
      28    H13     14.840319   20.944084   23.340913 H          1 MOL1         0.3769
      29    C9      15.143522   18.233273   22.540028 C.3        1 MOL1         0.1053
      30    H14     16.092526   18.609810   22.940959 H          1 MOL1         0.0783
      31    O8      14.506876   17.400908   23.514833 O.3        1 MOL1        -0.5519
      32    H15     15.245677   17.057901   24.082826 H          1 MOL1         0.3769
      33    C10     15.449263   17.402880   21.265296 C.3        1 MOL1         0.1018
      34    H16     14.516807   16.924559   20.938310 H          1 MOL1         0.0783
      35    C11     15.987361   18.310015   20.121367 C.3        1 MOL1         0.1043
      36    H17     16.952536   18.724322   20.438879 H          1 MOL1         0.0783
      37    O9      15.048992   19.393286   19.901910 O.3        1 MOL1        -0.3740
      38    C12     16.220340   17.604308   18.761716 C.3        1 MOL1         0.0138
      39    H18     17.224033   17.163249   18.764390 H          1 MOL1         0.0794
      40    H19     16.211911   18.363884   17.968840 H          1 MOL1         0.0794
      41    O10     15.248613   16.592740   18.476985 O.3        1 MOL1        -0.5486
      42    H20     15.561705   15.771216   18.921657 H          1 MOL1         0.3769
      43    C13     18.581548   24.124174   21.049239 C.3        1 MOL1         0.2972
      44    H21     18.988609   25.113399   20.802843 H          1 MOL1         0.0751
      45    O11     19.591199   23.245139   21.573533 O.3        1 MOL1        -0.3740
      46    C14     17.467860   24.230975   22.122477 C.3        1 MOL1         0.1003
      47    H22     16.678225   24.875958   21.715735 H          1 MOL1         0.0783
      48    O12     17.978048   24.811221   23.334687 O.3        1 MOL1        -0.5519
      49    H23     18.811769   24.328102   23.564535 H          1 MOL1         0.3769
      50    C15     16.851112   22.839238   22.412235 C.3        1 MOL1         0.1053
      51    H24     17.614150   22.219197   22.903257 H          1 MOL1         0.0783
      52    O13     15.719964   22.989230   23.276797 O.3        1 MOL1        -0.5519
      53    H25     16.020339   23.594700   23.990435 H          1 MOL1         0.3769
      54    C16     16.423319   22.131816   21.102471 C.3        1 MOL1         0.1018
      55    H26     15.546000   22.656093   20.701530 H          1 MOL1         0.0783
      56    C17     17.559509   22.140500   20.041759 C.3        1 MOL1         0.1043
      57    H27     18.385636   21.521499   20.411197 H          1 MOL1         0.0783
      58    O14     18.021227   23.502918   19.870706 O.3        1 MOL1        -0.3740
      59    C18     17.172969   21.572940   18.652663 C.3        1 MOL1         0.0138
      60    H28     17.322420   20.486014   18.669752 H          1 MOL1         0.0794
      61    H29     17.868319   21.977529   17.905254 H          1 MOL1         0.0794
      62    O15     15.822685   21.864282   18.276516 O.3        1 MOL1        -0.5486
      63    H30     15.267252   21.142540   18.649947 H          1 MOL1         0.3769
      64    C19     23.607091   22.759113   22.106722 C.3        1 MOL1         0.2972
      65    H31     24.691731   22.823872   22.263702 H          1 MOL1         0.0751
      66    O16     23.192865   21.408028   21.826055 O.3        1 MOL1        -0.3740
      67    C20     22.863757   23.239979   23.375077 C.3        1 MOL1         0.1003
      68    H32     23.124875   24.293913   23.536762 H          1 MOL1         0.0783
      69    O17     23.272085   22.465335   24.513200 O.3        1 MOL1        -0.5519
      70    H33     23.592955   21.600541   24.162036 H          1 MOL1         0.3769
      71    C21     21.333960   23.146786   23.177647 C.3        1 MOL1         0.1053
      72    H34     21.068389   22.083798   23.127881 H          1 MOL1         0.0783
      73    O18     20.663312   23.751801   24.288463 O.3        1 MOL1        -0.5519
      74    H35     21.105117   23.380138   25.084093 H          1 MOL1         0.3769
      75    C22     20.875434   23.823168   21.861995 C.3        1 MOL1         0.1018
      76    H36     20.815990   24.907084   22.027661 H          1 MOL1         0.0783
      77    C23     21.791221   23.506041   20.645174 C.3        1 MOL1         0.1043
      78    H37     21.564431   22.479854   20.334901 H          1 MOL1         0.0783
      79    O19     23.194837   23.591182   21.003700 O.3        1 MOL1        -0.3740
      80    C24     21.544488   24.418208   19.419531 C.3        1 MOL1         0.0138
      81    H38     20.576176   24.153132   18.974402 H          1 MOL1         0.0794
      82    H39     22.315233   24.209480   18.665364 H          1 MOL1         0.0794
      83    O20     21.555032   25.807173   19.770925 O.3        1 MOL1        -0.5486
      84    H40     21.472068   26.325373   18.940742 H          1 MOL1         0.3769
      85    C25     24.761894   17.753719   20.553589 C.3        1 MOL1         0.2972
      86    H41     25.381242   16.967720   20.102758 H          1 MOL1         0.0751
      87    O21     23.480871   17.239904   20.971807 O.3        1 MOL1        -0.3740
      88    C26     25.482507   18.413607   21.762604 C.3        1 MOL1         0.1003
      89    H42     26.403613   18.868918   21.376126 H          1 MOL1         0.0783
      90    O22     25.833912   17.456304   22.772184 O.3        1 MOL1        -0.5519
      91    H43     24.987813   17.060485   23.102189 H          1 MOL1         0.3769
      92    C27     24.611902   19.545733   22.361134 C.3        1 MOL1         0.1053
      93    H44     23.699320   19.097392   22.779021 H          1 MOL1         0.0783
      94    O23     25.339757   20.220998   23.392686 O.3        1 MOL1        -0.5519
      95    H45     25.751679   19.506179   23.927118 H          1 MOL1         0.3769
      96    C28     24.199779   20.552065   21.258663 C.3        1 MOL1         0.1018
      97    H46     25.089645   21.115889   20.948892 H          1 MOL1         0.0783
      98    C29     23.595410   19.838183   20.016412 C.3        1 MOL1         0.1043
      99    H47     22.636906   19.388298   20.306843 H          1 MOL1         0.0783
     100    O24     24.508470   18.796987   19.587039 O.3        1 MOL1        -0.3740
     101    C30     23.312241   20.762479   18.803134 C.3        1 MOL1         0.0138
     102    H48     22.278294   21.120811   18.870944 H          1 MOL1         0.0794
     103    H49     23.372220   20.161202   17.886129 H          1 MOL1         0.0794
     104    O25     24.208603   21.877679   18.715041 O.3        1 MOL1        -0.5486
     105    H50     23.995345   22.486003   19.460906 H          1 MOL1         0.3769
     106    C31     21.344666   13.799309   21.762233 C.3        1 MOL1         0.2972
     107    H51     20.976337   12.788334   21.979000 H          1 MOL1         0.0751
     108    O26     20.270437   14.704922   21.435614 O.3        1 MOL1        -0.3740
     109    C32     22.142341   14.356949   22.969637 C.3        1 MOL1         0.1003
     110    H52     23.033540   13.726766   23.087872 H          1 MOL1         0.0783
     111    O27     21.389625   14.317929   24.189967 O.3        1 MOL1        -0.5519
     112    H53     20.438463   14.207639   23.947800 H          1 MOL1         0.3769
     113    C33     22.620500   15.795002   22.679516 C.3        1 MOL1         0.1053
     114    H54     21.735115   16.436744   22.580822 H          1 MOL1         0.0783
     115    O28     23.424813   16.244142   23.774273 O.3        1 MOL1        -0.5519
     116    H55     22.922054   15.968636   24.574033 H          1 MOL1         0.3769
     117    C34     23.423024   15.852536   21.355164 C.3        1 MOL1         0.1018
     118    H56     24.421933   15.432860   21.533474 H          1 MOL1         0.0783
     119    C35     22.723582   15.085078   20.193394 C.3        1 MOL1         0.1043
     120    H57     21.863569   15.684157   19.866616 H          1 MOL1         0.0783
     121    O29     22.250706   13.784691   20.638639 O.3        1 MOL1        -0.3740
     122    C36     23.629258   14.879093   18.955788 C.3        1 MOL1         0.0138
     123    H58     23.773554   15.850863   18.464474 H          1 MOL1         0.0794
     124    H59     23.105227   14.228165   18.243139 H          1 MOL1         0.0794
     125    O30     24.900899   14.316585   19.302928 O.3        1 MOL1        -0.5486
     126    H60     25.385477   14.137286   18.467645 H          1 MOL1         0.3769
     127    C1      17.999848   16.371884   25.235808 C.2        1 MOL1         0.6173
     128    O1      18.227524   15.294556   25.751617 O.co2      1 MOL1        -0.6755
     129    O2      16.873688   16.715074   24.921543 O.co2      1 MOL1        -0.6755
     130    C2      19.171047   17.170719   24.777473 C.2        1 MOL1        -0.1504
     131    H1      20.148711   16.752000   25.002905 H          1 MOL1         0.0814
     132    C3      19.066082   18.325060   24.081336 C.2        1 MOL1        -0.1394
     133    H2      18.088568   18.743144   23.851178 H          1 MOL1         0.0817
     134    C4      20.247750   19.104861   23.540392 C.3        1 MOL1        -0.1849
     135    H3      21.154118   18.485849   23.538327 H          1 MOL1         0.0736
     136    H4      20.455168   19.954001   24.204313 H          1 MOL1         0.0736
     137    C5      19.977562   19.630476   22.112855 C.3        1 MOL1        -0.1866
     138    H5      19.083644   20.266512   22.130400 H          1 MOL1         0.0738
     139    H6      20.811323   20.265076   21.791337 H          1 MOL1         0.0738
     140    C6      19.788525   18.495567   21.085829 C.3        1 MOL1        -0.2879
     141    H7      18.951863   17.850251   21.377575 H          1 MOL1         0.0750
     142    H8      19.578293   18.903320   20.089484 H          1 MOL1         0.0750
     143    H9      20.689863   17.874229   21.017808 H          1 MOL1         0.0750
@<TRIPOS>BOND
    1     1     2    1
    2     1     3    1
    3     1     4    1
    4     4     5    1
    5     4     6    1
    6     6     7    1
    7     4     8    1
    8     8     9    1
    9     8    10    1
   10    10    11    1
   11     8    12    1
   12    12    13    1
   13    12    14    1
   14    14    15    1
   15     1    16    1
   16    14    16    1
   17    14    17    1
   18    17    18    1
   19    17    19    1
   20    17    20    1
   21    20    21    1
   22    22    23    1
   23    22    24    1
   24    22    25    1
   25    25    26    1
   26    25    27    1
   27    27    28    1
   28    25    29    1
   29    29    30    1
   30    29    31    1
   31    31    32    1
   32     3    33    1
   33    29    33    1
   34    33    34    1
   35    33    35    1
   36    35    36    1
   37    22    37    1
   38    35    37    1
   39    35    38    1
   40    38    39    1
   41    38    40    1
   42    38    41    1
   43    41    42    1
   44    43    44    1
   45    43    45    1
   46    43    46    1
   47    46    47    1
   48    46    48    1
   49    48    49    1
   50    46    50    1
   51    50    51    1
   52    50    52    1
   53    52    53    1
   54    24    54    1
   55    50    54    1
   56    54    55    1
   57    54    56    1
   58    56    57    1
   59    43    58    1
   60    56    58    1
   61    56    59    1
   62    59    60    1
   63    59    61    1
   64    59    62    1
   65    62    63    1
   66    64    65    1
   67    64    66    1
   68    64    67    1
   69    67    68    1
   70    67    69    1
   71    69    70    1
   72    67    71    1
   73    71    72    1
   74    71    73    1
   75    73    74    1
   76    45    75    1
   77    71    75    1
   78    75    76    1
   79    75    77    1
   80    77    78    1
   81    64    79    1
   82    77    79    1
   83    77    80    1
   84    80    81    1
   85    80    82    1
   86    80    83    1
   87    83    84    1
   88    85    86    1
   89    85    87    1
   90    85    88    1
   91    88    89    1
   92    88    90    1
   93    90    91    1
   94    88    92    1
   95    92    93    1
   96    92    94    1
   97    94    95    1
   98    66    96    1
   99    92    96    1
  100    96    97    1
  101    96    98    1
  102    98    99    1
  103    85   100    1
  104    98   100    1
  105    98   101    1
  106   101   102    1
  107   101   103    1
  108   101   104    1
  109   104   105    1
  110   106   107    1
  111    12   108    1
  112   106   108    1
  113   106   109    1
  114   109   110    1
  115   109   111    1
  116   111   112    1
  117   109   113    1
  118   113   114    1
  119   113   115    1
  120   115   116    1
  121    87   117    1
  122   113   117    1
  123   117   118    1
  124   117   119    1
  125   119   120    1
  126   106   121    1
  127   119   121    1
  128   119   122    1
  129   122   123    1
  130   122   124    1
  131   122   125    1
  132   125   126    1
  133   127   128    1
  134   127   129    2
  135   127   130    1
  136   130   131    1
  137   130   132    2
  138   132   133    1
  139   132   134    1
  140   134   135    1
  141   134   136    1
  142   134   137    1
  143   137   138    1
  144   137   139    1
  145   137   140    1
  146   140   141    1
  147   140   142    1
  148   140   143    1
@<TRIPOS>SUBSTRUCTURE
       1 MOL1            1 RESIDUE      1      MOL     
       2 MOL1          143 RESIDUE      1      MOL     
@<SCITEGIC>MOL_PROPERTY
feprocess Rank
SciTegic.value.IntegerValue
47

@<SCITEGIC>MOL_PROPERTY
Conf_Id
SciTegic.value.IntegerValue
584

@<SCITEGIC>MOL_PROPERTY
Probability
SciTegic.value.DoubleValue
0.04

@<SCITEGIC>MOL_PROPERTY
G
SciTegic.value.DoubleValue
499.328

@<SCITEGIC>MOL_PROPERTY
E
SciTegic.value.DoubleValue
316.305

@<SCITEGIC>MOL_PROPERTY
-TS
SciTegic.value.DoubleValue
183.023

@<SCITEGIC>MOL_PROPERTY
U+W
SciTegic.value.DoubleValue
190.217

@<SCITEGIC>MOL_PROPERTY
U
SciTegic.value.DoubleValue
266.247

@<SCITEGIC>MOL_PROPERTY
W
SciTegic.value.DoubleValue
-76.029

@<SCITEGIC>MOL_PROPERTY
W(PB)
SciTegic.value.DoubleValue
-81.993

@<SCITEGIC>MOL_PROPERTY
W(SA)
SciTegic.value.DoubleValue
5.964

@<SCITEGIC>MOL_PROPERTY
Valence
SciTegic.value.DoubleValue
151.524

@<SCITEGIC>MOL_PROPERTY
Coulomb
SciTegic.value.DoubleValue
138.389

@<SCITEGIC>MOL_PROPERTY
VdW
SciTegic.value.DoubleValue
-23.666

@<SCITEGIC>MOL_PROPERTY
VdW6
SciTegic.value.DoubleValue
-181.786

@<SCITEGIC>MOL_PROPERTY
VdW12
SciTegic.value.DoubleValue
158.120

@<SCITEGIC>MOL_PROPERTY
Bond
SciTegic.value.DoubleValue
4.927

@<SCITEGIC>MOL_PROPERTY
Angle
SciTegic.value.DoubleValue
14.445

@<SCITEGIC>MOL_PROPERTY
Pdih
SciTegic.value.DoubleValue
132.074

@<SCITEGIC>MOL_PROPERTY
Idih
SciTegic.value.DoubleValue
0.078

@<SCITEGIC>MOL_PROPERTY
Tether
SciTegic.value.DoubleValue
0.000

@<TRIPOS>MOLECULE
CD_guest-s19_fast_vm2_rndm.mol2 : feprocess host+ligand conformer 48
         143         148           2
SMALL
USER_CHARGES
 
@<TRIPOS>ATOM
       1    C1      16.112506   15.125205   20.901113 C.3        1 MOL1         0.2972
       2    H1      15.051289   14.942681   20.688840 H          1 MOL1         0.0751
       3    O1      16.347631   16.471871   21.355422 O.3        1 MOL1        -0.3740
       4    C2      16.618412   14.177273   22.015393 C.3        1 MOL1         0.1003
       5    H2      16.487825   13.148522   21.655173 H          1 MOL1         0.0783
       6    O2      15.858337   14.355087   23.221896 O.3        1 MOL1        -0.5519
       7    H3      15.730491   15.329700   23.348643 H          1 MOL1         0.3769
       8    C3      18.127598   14.399882   22.290259 C.3        1 MOL1         0.1053
       9    H4      18.252851   15.396753   22.736308 H          1 MOL1         0.0783
      10    O3      18.572690   13.395053   23.207657 O.3        1 MOL1        -0.5519
      11    H5      17.850098   13.325553   23.872863 H          1 MOL1         0.3769
      12    C4      18.955295   14.348734   20.975456 C.3        1 MOL1         0.1018
      13    H6      19.028160   13.307029   20.637959 H          1 MOL1         0.0783
      14    C5      18.315990   15.203255   19.846828 C.3        1 MOL1         0.1043
      15    H7      18.416075   16.261074   20.114837 H          1 MOL1         0.0783
      16    O4      16.910630   14.883344   19.722251 O.3        1 MOL1        -0.3740
      17    C6      18.997431   15.027432   18.466991 C.3        1 MOL1         0.0138
      18    H8      19.954456   15.565984   18.481363 H          1 MOL1         0.0794
      19    H9      18.368934   15.506011   17.704378 H          1 MOL1         0.0794
      20    O5      19.223449   13.653738   18.128143 O.3        1 MOL1        -0.5486
      21    H10     19.963800   13.332851   18.687119 H          1 MOL1         0.3769
      22    C7      14.683641   20.241919   21.557668 C.3        1 MOL1         0.2972
      23    H11     14.038623   21.129856   21.580015 H          1 MOL1         0.0751
      24    O6      16.078536   20.603735   21.621786 O.3        1 MOL1        -0.3740
      25    C8      14.325257   19.306398   22.738577 C.3        1 MOL1         0.1003
      26    H12     13.314911   18.923923   22.544525 H          1 MOL1         0.0783
      27    O7      14.293691   20.021006   23.982972 O.3        1 MOL1        -0.5519
      28    H13     15.222713   20.269477   24.236237 H          1 MOL1         0.3769
      29    C9      15.284065   18.090734   22.753955 C.3        1 MOL1         0.1053
      30    H14     16.311692   18.454124   22.885169 H          1 MOL1         0.0783
      31    O8      14.955134   17.188910   23.818106 O.3        1 MOL1        -0.5519
      32    H15     15.235779   17.655888   24.650151 H          1 MOL1         0.3769
      33    C10     15.207755   17.350472   21.396136 C.3        1 MOL1         0.1018
      34    H16     14.258213   16.800891   21.354324 H          1 MOL1         0.0783
      35    C11     15.326098   18.313833   20.179785 C.3        1 MOL1         0.1043
      36    H17     16.373112   18.631284   20.129759 H          1 MOL1         0.0783
      37    O9      14.482549   19.487553   20.342689 O.3        1 MOL1        -0.3740
      38    C12     14.975882   17.651222   18.826059 C.3        1 MOL1         0.0138
      39    H18     15.768793   16.936758   18.569446 H          1 MOL1         0.0794
      40    H19     14.972000   18.424274   18.045938 H          1 MOL1         0.0794
      41    O10     13.710409   16.980195   18.868372 O.3        1 MOL1        -0.5486
      42    H20     13.531982   16.624588   17.970661 H          1 MOL1         0.3769
      43    C13     18.609985   23.858424   20.897161 C.3        1 MOL1         0.2972
      44    H21     19.024869   24.805608   20.529467 H          1 MOL1         0.0751
      45    O11     19.607224   23.069400   21.567255 O.3        1 MOL1        -0.3740
      46    C14     17.461115   24.122796   21.903530 C.3        1 MOL1         0.1003
      47    H22     16.728304   24.762534   21.395064 H          1 MOL1         0.0783
      48    O12     17.962119   24.808062   23.064290 O.3        1 MOL1        -0.5519
      49    H23     18.763624   24.313553   23.368902 H          1 MOL1         0.3769
      50    C15     16.736770   22.815304   22.321600 C.3        1 MOL1         0.1053
      51    H24     17.397829   22.250787   22.994283 H          1 MOL1         0.0783
      52    O13     15.524786   23.162064   22.999907 O.3        1 MOL1        -0.5519
      53    H25     15.803708   23.644482   23.807229 H          1 MOL1         0.3769
      54    C16     16.408003   21.909605   21.105822 C.3        1 MOL1         0.1018
      55    H26     15.569266   22.354836   20.554696 H          1 MOL1         0.0783
      56    C17     17.617567   21.759171   20.143586 C.3        1 MOL1         0.1043
      57    H27     18.408423   21.203632   20.663648 H          1 MOL1         0.0783
      58    O14     18.093619   23.080410   19.798241 O.3        1 MOL1        -0.3740
      59    C18     17.322353   21.001294   18.823220 C.3        1 MOL1         0.0138
      60    H28     17.534335   19.936938   18.976292 H          1 MOL1         0.0794
      61    H29     18.028444   21.349366   18.057584 H          1 MOL1         0.0794
      62    O15     15.977233   21.171013   18.358290 O.3        1 MOL1        -0.5486
      63    H30     15.385678   20.702591   18.992992 H          1 MOL1         0.3769
      64    C19     23.687755   22.798825   22.042607 C.3        1 MOL1         0.2972
      65    H31     24.764499   22.964750   22.175725 H          1 MOL1         0.0751
      66    O16     23.383131   21.400015   21.886491 O.3        1 MOL1        -0.3740
      67    C20     22.925448   23.322140   23.282896 C.3        1 MOL1         0.1003
      68    H32     23.128973   24.397298   23.370198 H          1 MOL1         0.0783
      69    O17     23.387283   22.650258   24.465481 O.3        1 MOL1        -0.5519
      70    H33     23.684017   21.752006   24.181231 H          1 MOL1         0.3769
      71    C21     21.400449   23.134659   23.114288 C.3        1 MOL1         0.1053
      72    H34     21.188099   22.059505   23.145587 H          1 MOL1         0.0783
      73    O18     20.711218   23.792767   24.183476 O.3        1 MOL1        -0.5519
      74    H35     21.156263   23.482852   25.002730 H          1 MOL1         0.3769
      75    C22     20.894869   23.683308   21.758908 C.3        1 MOL1         0.1018
      76    H36     20.820987   24.776410   21.833735 H          1 MOL1         0.0783
      77    C23     21.803211   23.282475   20.558613 C.3        1 MOL1         0.1043
      78    H37     21.639867   22.215358   20.361111 H          1 MOL1         0.0783
      79    O19     23.201674   23.498387   20.880148 O.3        1 MOL1        -0.3740
      80    C24     21.494994   24.044712   19.246985 C.3        1 MOL1         0.0138
      81    H38     20.547597   23.671260   18.836579 H          1 MOL1         0.0794
      82    H39     22.278550   23.810297   18.513958 H          1 MOL1         0.0794
      83    O20     21.414769   25.460767   19.451044 O.3        1 MOL1        -0.5486
      84    H40     21.304042   25.882978   18.571340 H          1 MOL1         0.3769
      85    C25     25.035558   17.767543   20.730976 C.3        1 MOL1         0.2972
      86    H41     25.669995   16.954448   20.355464 H          1 MOL1         0.0751
      87    O21     23.680167   17.316441   20.950805 O.3        1 MOL1        -0.3740
      88    C26     25.619560   18.381397   22.033898 C.3        1 MOL1         0.1003
      89    H42     26.589472   18.823332   21.770898 H          1 MOL1         0.0783
      90    O22     25.831406   17.397781   23.056349 O.3        1 MOL1        -0.5519
      91    H43     24.936563   17.067052   23.321699 H          1 MOL1         0.3769
      92    C27     24.705546   19.521575   22.543944 C.3        1 MOL1         0.1053
      93    H44     23.735923   19.089253   22.827170 H          1 MOL1         0.0783
      94    O23     25.305595   20.153645   23.680228 O.3        1 MOL1        -0.5519
      95    H45     25.616375   19.416872   24.251420 H          1 MOL1         0.3769
      96    C28     24.466232   20.569256   21.429174 C.3        1 MOL1         0.1018
      97    H46     25.395101   21.138693   21.294764 H          1 MOL1         0.0783
      98    C29     24.063671   19.920307   20.071335 C.3        1 MOL1         0.1043
      99    H47     23.053097   19.509349   20.167385 H          1 MOL1         0.0783
     100    O24     24.982526   18.840395   19.762447 O.3        1 MOL1        -0.3740
     101    C30     24.023571   20.894628   18.864964 C.3        1 MOL1         0.0138
     102    H48     23.012050   21.311976   18.789080 H          1 MOL1         0.0794
     103    H49     24.195890   20.318652   17.945970 H          1 MOL1         0.0794
     104    O25     24.974058   21.961750   18.960095 O.3        1 MOL1        -0.5486
     105    H50     24.589163   22.630964   19.572787 H          1 MOL1         0.3769
     106    C31     21.273390   14.027449   21.720299 C.3        1 MOL1         0.2972
     107    H51     20.861510   13.038962   21.960781 H          1 MOL1         0.0751
     108    O26     20.258794   14.916579   21.212506 O.3        1 MOL1        -0.3740
     109    C32     21.922298   14.662545   22.976718 C.3        1 MOL1         0.1003
     110    H52     22.737459   13.997366   23.290134 H          1 MOL1         0.0783
     111    O27     20.984632   14.795510   24.057336 O.3        1 MOL1        -0.5519
     112    H53     20.174663   14.290387   23.803759 H          1 MOL1         0.3769
     113    C33     22.531413   16.041070   22.639180 C.3        1 MOL1         0.1053
     114    H54     21.706813   16.715910   22.379376 H          1 MOL1         0.0783
     115    O28     23.215179   16.529792   23.796614 O.3        1 MOL1        -0.5519
     116    H55     22.577225   16.386267   24.531803 H          1 MOL1         0.3769
     117    C34     23.488833   15.965099   21.421889 C.3        1 MOL1         0.1018
     118    H56     24.431600   15.500569   21.739215 H          1 MOL1         0.0783
     119    C35     22.872692   15.159592   20.241991 C.3        1 MOL1         0.1043
     120    H57     22.075850   15.769750   19.796614 H          1 MOL1         0.0783
     121    O29     22.302945   13.910749   20.714820 O.3        1 MOL1        -0.3740
     122    C36     23.888193   14.841870   19.118396 C.3        1 MOL1         0.0138
     123    H58     24.129425   15.776291   18.593794 H          1 MOL1         0.0794
     124    H59     23.407917   14.173880   18.390891 H          1 MOL1         0.0794
     125    O30     25.089179   14.246319   19.625683 O.3        1 MOL1        -0.5486
     126    H60     25.648671   14.002314   18.856204 H          1 MOL1         0.3769
     127    C1      17.158184   19.438795   25.309642 C.2        1 MOL1         0.6173
     128    O1      16.806585   20.590130   25.134126 O.co2      1 MOL1        -0.6755
     129    O2      16.435754   18.597075   25.808699 O.co2      1 MOL1        -0.6755
     130    C2      18.460797   18.982038   24.762363 C.2        1 MOL1        -0.1504
     131    H1      18.678870   17.923316   24.881641 H          1 MOL1         0.0814
     132    C3      19.331886   19.791071   24.119020 C.2        1 MOL1        -0.1394
     133    H2      19.119448   20.850646   23.981358 H          1 MOL1         0.0817
     134    C4      20.622544   19.292735   23.509824 C.3        1 MOL1        -0.1849
     135    H3      20.819101   18.264280   23.837764 H          1 MOL1         0.0736
     136    H4      21.464425   19.893717   23.876465 H          1 MOL1         0.0736
     137    C5      20.586542   19.343254   21.967680 C.3        1 MOL1        -0.1866
     138    H5      20.501898   20.383272   21.629100 H          1 MOL1         0.0738
     139    H6      21.538724   18.960579   21.587454 H          1 MOL1         0.0738
     140    C6      19.436791   18.507384   21.369468 C.3        1 MOL1        -0.2879
     141    H7      18.459719   18.925247   21.643065 H          1 MOL1         0.0750
     142    H8      19.503654   18.482122   20.275058 H          1 MOL1         0.0750
     143    H9      19.477803   17.477789   21.743831 H          1 MOL1         0.0750
@<TRIPOS>BOND
    1     1     2    1
    2     1     3    1
    3     1     4    1
    4     4     5    1
    5     4     6    1
    6     6     7    1
    7     4     8    1
    8     8     9    1
    9     8    10    1
   10    10    11    1
   11     8    12    1
   12    12    13    1
   13    12    14    1
   14    14    15    1
   15     1    16    1
   16    14    16    1
   17    14    17    1
   18    17    18    1
   19    17    19    1
   20    17    20    1
   21    20    21    1
   22    22    23    1
   23    22    24    1
   24    22    25    1
   25    25    26    1
   26    25    27    1
   27    27    28    1
   28    25    29    1
   29    29    30    1
   30    29    31    1
   31    31    32    1
   32     3    33    1
   33    29    33    1
   34    33    34    1
   35    33    35    1
   36    35    36    1
   37    22    37    1
   38    35    37    1
   39    35    38    1
   40    38    39    1
   41    38    40    1
   42    38    41    1
   43    41    42    1
   44    43    44    1
   45    43    45    1
   46    43    46    1
   47    46    47    1
   48    46    48    1
   49    48    49    1
   50    46    50    1
   51    50    51    1
   52    50    52    1
   53    52    53    1
   54    24    54    1
   55    50    54    1
   56    54    55    1
   57    54    56    1
   58    56    57    1
   59    43    58    1
   60    56    58    1
   61    56    59    1
   62    59    60    1
   63    59    61    1
   64    59    62    1
   65    62    63    1
   66    64    65    1
   67    64    66    1
   68    64    67    1
   69    67    68    1
   70    67    69    1
   71    69    70    1
   72    67    71    1
   73    71    72    1
   74    71    73    1
   75    73    74    1
   76    45    75    1
   77    71    75    1
   78    75    76    1
   79    75    77    1
   80    77    78    1
   81    64    79    1
   82    77    79    1
   83    77    80    1
   84    80    81    1
   85    80    82    1
   86    80    83    1
   87    83    84    1
   88    85    86    1
   89    85    87    1
   90    85    88    1
   91    88    89    1
   92    88    90    1
   93    90    91    1
   94    88    92    1
   95    92    93    1
   96    92    94    1
   97    94    95    1
   98    66    96    1
   99    92    96    1
  100    96    97    1
  101    96    98    1
  102    98    99    1
  103    85   100    1
  104    98   100    1
  105    98   101    1
  106   101   102    1
  107   101   103    1
  108   101   104    1
  109   104   105    1
  110   106   107    1
  111    12   108    1
  112   106   108    1
  113   106   109    1
  114   109   110    1
  115   109   111    1
  116   111   112    1
  117   109   113    1
  118   113   114    1
  119   113   115    1
  120   115   116    1
  121    87   117    1
  122   113   117    1
  123   117   118    1
  124   117   119    1
  125   119   120    1
  126   106   121    1
  127   119   121    1
  128   119   122    1
  129   122   123    1
  130   122   124    1
  131   122   125    1
  132   125   126    1
  133   127   128    1
  134   127   129    2
  135   127   130    1
  136   130   131    1
  137   130   132    2
  138   132   133    1
  139   132   134    1
  140   134   135    1
  141   134   136    1
  142   134   137    1
  143   137   138    1
  144   137   139    1
  145   137   140    1
  146   140   141    1
  147   140   142    1
  148   140   143    1
@<TRIPOS>SUBSTRUCTURE
       1 MOL1            1 RESIDUE      1      MOL     
       2 MOL1          143 RESIDUE      1      MOL     
@<SCITEGIC>MOL_PROPERTY
feprocess Rank
SciTegic.value.IntegerValue
48

@<SCITEGIC>MOL_PROPERTY
Conf_Id
SciTegic.value.IntegerValue
688

@<SCITEGIC>MOL_PROPERTY
Probability
SciTegic.value.DoubleValue
0.04

@<SCITEGIC>MOL_PROPERTY
G
SciTegic.value.DoubleValue
499.341

@<SCITEGIC>MOL_PROPERTY
E
SciTegic.value.DoubleValue
316.643

@<SCITEGIC>MOL_PROPERTY
-TS
SciTegic.value.DoubleValue
182.698

@<SCITEGIC>MOL_PROPERTY
U+W
SciTegic.value.DoubleValue
190.555

@<SCITEGIC>MOL_PROPERTY
U
SciTegic.value.DoubleValue
271.616

@<SCITEGIC>MOL_PROPERTY
W
SciTegic.value.DoubleValue
-81.061

@<SCITEGIC>MOL_PROPERTY
W(PB)
SciTegic.value.DoubleValue
-87.118

@<SCITEGIC>MOL_PROPERTY
W(SA)
SciTegic.value.DoubleValue
6.057

@<SCITEGIC>MOL_PROPERTY
Valence
SciTegic.value.DoubleValue
148.512

@<SCITEGIC>MOL_PROPERTY
Coulomb
SciTegic.value.DoubleValue
147.276

@<SCITEGIC>MOL_PROPERTY
VdW
SciTegic.value.DoubleValue
-24.172

@<SCITEGIC>MOL_PROPERTY
VdW6
SciTegic.value.DoubleValue
-179.791

@<SCITEGIC>MOL_PROPERTY
VdW12
SciTegic.value.DoubleValue
155.619

@<SCITEGIC>MOL_PROPERTY
Bond
SciTegic.value.DoubleValue
4.887

@<SCITEGIC>MOL_PROPERTY
Angle
SciTegic.value.DoubleValue
14.449

@<SCITEGIC>MOL_PROPERTY
Pdih
SciTegic.value.DoubleValue
129.137

@<SCITEGIC>MOL_PROPERTY
Idih
SciTegic.value.DoubleValue
0.039

@<SCITEGIC>MOL_PROPERTY
Tether
SciTegic.value.DoubleValue
0.000

@<TRIPOS>MOLECULE
CD_guest-s19_fast_vm2_rndm.mol2 : feprocess host+ligand conformer 49
         143         148           2
SMALL
USER_CHARGES
 
@<TRIPOS>ATOM
       1    C1      16.258983   15.384134   21.916207 C.3        1 MOL1         0.2972
       2    H1      15.182398   15.289750   22.108495 H          1 MOL1         0.0751
       3    O1      16.602439   16.729257   21.538278 O.3        1 MOL1        -0.3740
       4    C2      17.052842   14.977612   23.184216 C.3        1 MOL1         0.1003
       5    H2      16.810571   13.926523   23.387299 H          1 MOL1         0.0783
       6    O2      16.670556   15.765827   24.321012 O.3        1 MOL1        -0.5519
       7    H3      16.940801   16.707636   24.130721 H          1 MOL1         0.3769
       8    C3      18.577018   15.072603   22.949688 C.3        1 MOL1         0.1053
       9    H4      18.837244   16.129559   22.823280 H          1 MOL1         0.0783
      10    O3      19.256854   14.547558   24.093827 O.3        1 MOL1        -0.5519
      11    H5      18.819523   14.978751   24.862336 H          1 MOL1         0.3769
      12    C4      19.002312   14.303845   21.672946 C.3        1 MOL1         0.1018
      13    H6      19.005643   13.228278   21.894173 H          1 MOL1         0.0783
      14    C5      18.071741   14.598659   20.462400 C.3        1 MOL1         0.1043
      15    H7      18.291268   15.620019   20.130336 H          1 MOL1         0.0783
      16    O4      16.670282   14.513240   20.838813 O.3        1 MOL1        -0.3740
      17    C6      18.316779   13.660712   19.256392 C.3        1 MOL1         0.0138
      18    H8      19.294160   13.905225   18.818428 H          1 MOL1         0.0794
      19    H9      17.556288   13.864768   18.490751 H          1 MOL1         0.0794
      20    O5      18.286456   12.278781   19.634493 O.3        1 MOL1        -0.5486
      21    H10     18.379346   11.743909   18.816128 H          1 MOL1         0.3769
      22    C7      14.989099   20.307079   20.222240 C.3        1 MOL1         0.2972
      23    H11     14.421093   21.119022   19.750510 H          1 MOL1         0.0751
      24    O6      16.236112   20.787764   20.764399 O.3        1 MOL1        -0.3740
      25    C8      14.150711   19.597123   21.319663 C.3        1 MOL1         0.1003
      26    H12     13.277897   19.163327   20.814554 H          1 MOL1         0.0783
      27    O7      13.685971   20.512292   22.323002 O.3        1 MOL1        -0.5519
      28    H13     14.487543   20.826188   22.812581 H          1 MOL1         0.3769
      29    C9      14.941984   18.430952   21.964747 C.3        1 MOL1         0.1053
      30    H14     15.763993   18.855129   22.556668 H          1 MOL1         0.0783
      31    O8      14.054901   17.689540   22.809565 O.3        1 MOL1        -0.5519
      32    H15     13.662050   18.350406   23.419507 H          1 MOL1         0.3769
      33    C10     15.556493   17.486910   20.896959 C.3        1 MOL1         0.1018
      34    H16     14.758732   16.837556   20.514513 H          1 MOL1         0.0783
      35    C11     16.207921   18.248271   19.707392 C.3        1 MOL1         0.1043
      36    H17     17.140515   18.701916   20.066485 H          1 MOL1         0.0783
      37    O9      15.314893   19.294287   19.244668 O.3        1 MOL1        -0.3740
      38    C12     16.582790   17.349852   18.497941 C.3        1 MOL1         0.0138
      39    H18     17.609726   16.992512   18.633014 H          1 MOL1         0.0794
      40    H19     16.584688   17.968434   17.590556 H          1 MOL1         0.0794
      41    O10     15.708472   16.226908   18.325518 O.3        1 MOL1        -0.5486
      42    H20     15.858634   15.619631   19.086362 H          1 MOL1         0.3769
      43    C13     18.471482   23.894906   22.223684 C.3        1 MOL1         0.2972
      44    H21     18.883593   24.824866   22.636323 H          1 MOL1         0.0751
      45    O11     19.525049   23.000933   21.808492 O.3        1 MOL1        -0.3740
      46    C14     17.585271   23.201150   23.289297 C.3        1 MOL1         0.1003
      47    H22     16.751729   23.880536   23.508808 H          1 MOL1         0.0783
      48    O12     18.324836   22.969197   24.500938 O.3        1 MOL1        -0.5519
      49    H23     18.403351   21.989380   24.632482 H          1 MOL1         0.3769
      50    C15     16.990842   21.890218   22.727860 C.3        1 MOL1         0.1053
      51    H24     17.824326   21.210832   22.531298 H          1 MOL1         0.0783
      52    O13     16.093729   21.304698   23.681079 O.3        1 MOL1        -0.5519
      53    H25     16.666406   20.821319   24.331624 H          1 MOL1         0.3769
      54    C16     16.277367   22.096820   21.370400 C.3        1 MOL1         0.1018
      55    H26     15.277779   22.518071   21.538686 H          1 MOL1         0.0783
      56    C17     17.095460   22.995279   20.399628 C.3        1 MOL1         0.1043
      57    H27     17.926128   22.383745   20.030156 H          1 MOL1         0.0783
      58    O14     17.640072   24.163767   21.071961 O.3        1 MOL1        -0.3740
      59    C18     16.287881   23.462844   19.165655 C.3        1 MOL1         0.0138
      60    H28     16.097490   22.591903   18.524054 H          1 MOL1         0.0794
      61    H29     16.902211   24.165469   18.586816 H          1 MOL1         0.0794
      62    O15     15.046425   24.074521   19.535671 O.3        1 MOL1        -0.5486
      63    H30     14.623784   24.412309   18.715994 H          1 MOL1         0.3769
      64    C19     23.500190   22.764249   20.751546 C.3        1 MOL1         0.2972
      65    H31     24.526330   22.884951   20.381371 H          1 MOL1         0.0751
      66    O16     23.215269   21.388648   21.082672 O.3        1 MOL1        -0.3740
      67    C20     23.237189   23.661940   21.987167 C.3        1 MOL1         0.1003
      68    H32     23.353095   24.702054   21.655599 H          1 MOL1         0.0783
      69    O17     24.176911   23.408162   23.042069 O.3        1 MOL1        -0.5519
      70    H33     24.052202   22.464937   23.317771 H          1 MOL1         0.3769
      71    C21     21.783587   23.488677   22.495272 C.3        1 MOL1         0.1053
      72    H34     21.686610   22.480058   22.921070 H          1 MOL1         0.0783
      73    O18     21.533723   24.472362   23.504358 O.3        1 MOL1        -0.5519
      74    H35     22.285523   24.398873   24.131815 H          1 MOL1         0.3769
      75    C22     20.740481   23.632492   21.352136 C.3        1 MOL1         0.1018
      76    H36     20.596839   24.702199   21.153094 H          1 MOL1         0.0783
      77    C23     21.163100   22.917938   20.034159 C.3        1 MOL1         0.1043
      78    H37     21.031219   21.843065   20.182742 H          1 MOL1         0.0783
      79    O19     22.557404   23.185475   19.742360 O.3        1 MOL1        -0.3740
      80    C24     20.323192   23.288472   18.782622 C.3        1 MOL1         0.0138
      81    H38     19.530985   22.540140   18.660856 H          1 MOL1         0.0794
      82    H39     20.964360   23.203125   17.895080 H          1 MOL1         0.0794
      83    O20     19.748486   24.600469   18.844005 O.3        1 MOL1        -0.5486
      84    H40     19.080498   24.596681   19.568608 H          1 MOL1         0.3769
      85    C25     24.944686   17.674830   21.824933 C.3        1 MOL1         0.2972
      86    H41     25.630125   16.846863   22.046990 H          1 MOL1         0.0751
      87    O21     23.645218   17.194978   21.427733 O.3        1 MOL1        -0.3740
      88    C26     24.792159   18.591188   23.067196 C.3        1 MOL1         0.1003
      89    H42     25.789068   18.988994   23.297751 H          1 MOL1         0.0783
      90    O22     24.307095   17.864389   24.207398 O.3        1 MOL1        -0.5519
      91    H43     24.089963   16.949400   23.901530 H          1 MOL1         0.3769
      92    C27     23.863956   19.790582   22.764911 C.3        1 MOL1         0.1053
      93    H44     22.851095   19.400585   22.601466 H          1 MOL1         0.0783
      94    O23     23.866002   20.670022   23.893474 O.3        1 MOL1        -0.5519
      95    H45     23.747117   20.075068   24.668057 H          1 MOL1         0.3769
      96    C28     24.314927   20.547734   21.488364 C.3        1 MOL1         0.1018
      97    H46     25.213625   21.133456   21.722941 H          1 MOL1         0.0783
      98    C29     24.605932   19.575357   20.309362 C.3        1 MOL1         0.1043
      99    H47     23.647456   19.164547   19.965938 H          1 MOL1         0.0783
     100    O24     25.460769   18.485670   20.747321 O.3        1 MOL1        -0.3740
     101    C30     25.269666   20.262977   19.092716 C.3        1 MOL1         0.0138
     102    H48     24.523916   20.909253   18.610005 H          1 MOL1         0.0794
     103    H49     25.551951   19.490518   18.364915 H          1 MOL1         0.0794
     104    O25     26.415208   21.038645   19.467652 O.3        1 MOL1        -0.5486
     105    H50     26.826626   21.379716   18.643769 H          1 MOL1         0.3769
     106    C31     21.325847   13.801851   21.022157 C.3        1 MOL1         0.2972
     107    H51     20.889373   12.815439   20.818856 H          1 MOL1         0.0751
     108    O26     20.311543   14.788158   21.309994 O.3        1 MOL1        -0.3740
     109    C32     22.319374   13.745164   22.210609 C.3        1 MOL1         0.1003
     110    H52     23.147446   13.090660   21.908537 H          1 MOL1         0.0783
     111    O27     21.709922   13.202256   23.390952 O.3        1 MOL1        -0.5519
     112    H53     20.898725   13.739713   23.578291 H          1 MOL1         0.3769
     113    C33     22.905241   15.151601   22.490587 C.3        1 MOL1         0.1053
     114    H54     22.089519   15.800973   22.839179 H          1 MOL1         0.0783
     115    O28     23.909747   15.046435   23.503971 O.3        1 MOL1        -0.5519
     116    H55     23.536281   14.423022   24.167730 H          1 MOL1         0.3769
     117    C34     23.509335   15.776859   21.204469 C.3        1 MOL1         0.1018
     118    H56     24.478019   15.303517   21.000542 H          1 MOL1         0.0783
     119    C35     22.591695   15.606747   19.958572 C.3        1 MOL1         0.1043
     120    H57     21.740071   16.288398   20.056100 H          1 MOL1         0.0783
     121    O29     22.082754   14.252554   19.878381 O.3        1 MOL1        -0.3740
     122    C36     23.295929   15.957352   18.624756 C.3        1 MOL1         0.0138
     123    H58     23.465227   17.041626   18.593478 H          1 MOL1         0.0794
     124    H59     22.616675   15.710349   17.798161 H          1 MOL1         0.0794
     125    O30     24.543441   15.272229   18.458091 O.3        1 MOL1        -0.5486
     126    H60     25.208858   15.730265   19.014822 H          1 MOL1         0.3769
     127    C1      18.530726   19.261992   24.143969 C.2        1 MOL1         0.6173
     128    O1      17.764823   18.321402   24.060869 O.co2      1 MOL1        -0.6755
     129    O2      18.412861   20.141583   24.978142 O.co2      1 MOL1        -0.6755
     130    C2      19.556623   19.472733   23.088002 C.2        1 MOL1        -0.1504
     131    H1      20.246255   20.296622   23.257298 H          1 MOL1         0.0814
     132    C3      19.617583   18.757030   21.943533 C.2        1 MOL1        -0.1394
     133    H2      18.904448   17.963043   21.741056 H          1 MOL1         0.0817
     134    C4      20.629630   19.018464   20.856127 C.3        1 MOL1        -0.1849
     135    H3      21.366014   18.213299   20.848165 H          1 MOL1         0.0736
     136    H4      21.180779   19.931596   21.087297 H          1 MOL1         0.0736
     137    C5      19.973269   19.149318   19.468735 C.3        1 MOL1        -0.1866
     138    H5      19.422866   18.229009   19.240342 H          1 MOL1         0.0738
     139    H6      19.241908   19.969126   19.485733 H          1 MOL1         0.0738
     140    C6      21.015742   19.402314   18.360891 C.3        1 MOL1        -0.2879
     141    H7      21.704764   18.554408   18.274765 H          1 MOL1         0.0750
     142    H8      20.522104   19.535890   17.389880 H          1 MOL1         0.0750
     143    H9      21.608671   20.301819   18.567424 H          1 MOL1         0.0750
@<TRIPOS>BOND
    1     1     2    1
    2     1     3    1
    3     1     4    1
    4     4     5    1
    5     4     6    1
    6     6     7    1
    7     4     8    1
    8     8     9    1
    9     8    10    1
   10    10    11    1
   11     8    12    1
   12    12    13    1
   13    12    14    1
   14    14    15    1
   15     1    16    1
   16    14    16    1
   17    14    17    1
   18    17    18    1
   19    17    19    1
   20    17    20    1
   21    20    21    1
   22    22    23    1
   23    22    24    1
   24    22    25    1
   25    25    26    1
   26    25    27    1
   27    27    28    1
   28    25    29    1
   29    29    30    1
   30    29    31    1
   31    31    32    1
   32     3    33    1
   33    29    33    1
   34    33    34    1
   35    33    35    1
   36    35    36    1
   37    22    37    1
   38    35    37    1
   39    35    38    1
   40    38    39    1
   41    38    40    1
   42    38    41    1
   43    41    42    1
   44    43    44    1
   45    43    45    1
   46    43    46    1
   47    46    47    1
   48    46    48    1
   49    48    49    1
   50    46    50    1
   51    50    51    1
   52    50    52    1
   53    52    53    1
   54    24    54    1
   55    50    54    1
   56    54    55    1
   57    54    56    1
   58    56    57    1
   59    43    58    1
   60    56    58    1
   61    56    59    1
   62    59    60    1
   63    59    61    1
   64    59    62    1
   65    62    63    1
   66    64    65    1
   67    64    66    1
   68    64    67    1
   69    67    68    1
   70    67    69    1
   71    69    70    1
   72    67    71    1
   73    71    72    1
   74    71    73    1
   75    73    74    1
   76    45    75    1
   77    71    75    1
   78    75    76    1
   79    75    77    1
   80    77    78    1
   81    64    79    1
   82    77    79    1
   83    77    80    1
   84    80    81    1
   85    80    82    1
   86    80    83    1
   87    83    84    1
   88    85    86    1
   89    85    87    1
   90    85    88    1
   91    88    89    1
   92    88    90    1
   93    90    91    1
   94    88    92    1
   95    92    93    1
   96    92    94    1
   97    94    95    1
   98    66    96    1
   99    92    96    1
  100    96    97    1
  101    96    98    1
  102    98    99    1
  103    85   100    1
  104    98   100    1
  105    98   101    1
  106   101   102    1
  107   101   103    1
  108   101   104    1
  109   104   105    1
  110   106   107    1
  111    12   108    1
  112   106   108    1
  113   106   109    1
  114   109   110    1
  115   109   111    1
  116   111   112    1
  117   109   113    1
  118   113   114    1
  119   113   115    1
  120   115   116    1
  121    87   117    1
  122   113   117    1
  123   117   118    1
  124   117   119    1
  125   119   120    1
  126   106   121    1
  127   119   121    1
  128   119   122    1
  129   122   123    1
  130   122   124    1
  131   122   125    1
  132   125   126    1
  133   127   128    1
  134   127   129    2
  135   127   130    1
  136   130   131    1
  137   130   132    2
  138   132   133    1
  139   132   134    1
  140   134   135    1
  141   134   136    1
  142   134   137    1
  143   137   138    1
  144   137   139    1
  145   137   140    1
  146   140   141    1
  147   140   142    1
  148   140   143    1
@<TRIPOS>SUBSTRUCTURE
       1 MOL1            1 RESIDUE      1      MOL     
       2 MOL1          143 RESIDUE      1      MOL     
@<SCITEGIC>MOL_PROPERTY
feprocess Rank
SciTegic.value.IntegerValue
49

@<SCITEGIC>MOL_PROPERTY
Conf_Id
SciTegic.value.IntegerValue
310

@<SCITEGIC>MOL_PROPERTY
Probability
SciTegic.value.DoubleValue
0.04

@<SCITEGIC>MOL_PROPERTY
G
SciTegic.value.DoubleValue
499.356

@<SCITEGIC>MOL_PROPERTY
E
SciTegic.value.DoubleValue
315.528

@<SCITEGIC>MOL_PROPERTY
-TS
SciTegic.value.DoubleValue
183.828

@<SCITEGIC>MOL_PROPERTY
U+W
SciTegic.value.DoubleValue
189.439

@<SCITEGIC>MOL_PROPERTY
U
SciTegic.value.DoubleValue
260.987

@<SCITEGIC>MOL_PROPERTY
W
SciTegic.value.DoubleValue
-71.548

@<SCITEGIC>MOL_PROPERTY
W(PB)
SciTegic.value.DoubleValue
-77.559

@<SCITEGIC>MOL_PROPERTY
W(SA)
SciTegic.value.DoubleValue
6.012

@<SCITEGIC>MOL_PROPERTY
Valence
SciTegic.value.DoubleValue
149.960

@<SCITEGIC>MOL_PROPERTY
Coulomb
SciTegic.value.DoubleValue
134.431

@<SCITEGIC>MOL_PROPERTY
VdW
SciTegic.value.DoubleValue
-23.404

@<SCITEGIC>MOL_PROPERTY
VdW6
SciTegic.value.DoubleValue
-183.676

@<SCITEGIC>MOL_PROPERTY
VdW12
SciTegic.value.DoubleValue
160.272

@<SCITEGIC>MOL_PROPERTY
Bond
SciTegic.value.DoubleValue
5.287

@<SCITEGIC>MOL_PROPERTY
Angle
SciTegic.value.DoubleValue
15.709

@<SCITEGIC>MOL_PROPERTY
Pdih
SciTegic.value.DoubleValue
128.905

@<SCITEGIC>MOL_PROPERTY
Idih
SciTegic.value.DoubleValue
0.058

@<SCITEGIC>MOL_PROPERTY
Tether
SciTegic.value.DoubleValue
0.000

@<TRIPOS>MOLECULE
CD_guest-s19_fast_vm2_rndm.mol2 : feprocess host+ligand conformer 50
         143         148           2
SMALL
USER_CHARGES
 
@<TRIPOS>ATOM
       1    C1      16.247995   15.293784   20.781258 C.3        1 MOL1         0.2972
       2    H1      15.289101   15.000077   20.335632 H          1 MOL1         0.0751
       3    O1      16.190301   16.643892   21.285144 O.3        1 MOL1        -0.3740
       4    C2      16.599096   14.333723   21.951744 C.3        1 MOL1         0.1003
       5    H2      16.571459   13.315661   21.542559 H          1 MOL1         0.0783
       6    O2      15.638077   14.435561   23.012628 O.3        1 MOL1        -0.5519
       7    H3      15.792294   15.321718   23.440075 H          1 MOL1         0.3769
       8    C3      18.022338   14.577590   22.514931 C.3        1 MOL1         0.1053
       9    H4      18.021363   15.533136   23.051487 H          1 MOL1         0.0783
      10    O3      18.343093   13.514148   23.417185 O.3        1 MOL1        -0.5519
      11    H5      17.582434   13.465403   24.037029 H          1 MOL1         0.3769
      12    C4      19.081141   14.674266   21.387759 C.3        1 MOL1         0.1018
      13    H6      19.247327   13.674650   20.965327 H          1 MOL1         0.0783
      14    C5      18.610864   15.630984   20.260926 C.3        1 MOL1         0.1043
      15    H7      18.538494   16.644404   20.672529 H          1 MOL1         0.0783
      16    O4      17.307914   15.203913   19.804078 O.3        1 MOL1        -0.3740
      17    C6      19.560956   15.700021   19.039695 C.3        1 MOL1         0.0138
      18    H8      20.345802   16.435944   19.254988 H          1 MOL1         0.0794
      19    H9      18.998291   16.083568   18.178343 H          1 MOL1         0.0794
      20    O5      20.151247   14.433090   18.718988 O.3        1 MOL1        -0.5486
      21    H10     20.676950   14.146774   19.498643 H          1 MOL1         0.3769
      22    C7      14.683958   20.366160   20.357831 C.3        1 MOL1         0.2972
      23    H11     14.139690   21.261206   20.030427 H          1 MOL1         0.0751
      24    O6      16.041850   20.688920   20.737657 O.3        1 MOL1        -0.3740
      25    C8      13.940970   19.653576   21.515185 C.3        1 MOL1         0.1003
      26    H12     12.997636   19.269477   21.106146 H          1 MOL1         0.0783
      27    O7      13.634178   20.563699   22.581270 O.3        1 MOL1        -0.5519
      28    H13     14.478686   20.701113   23.077266 H          1 MOL1         0.3769
      29    C9      14.776531   18.438665   21.992745 C.3        1 MOL1         0.1053
      30    H14     15.724455   18.811428   22.404264 H          1 MOL1         0.0783
      31    O8      14.071125   17.716009   23.006740 O.3        1 MOL1        -0.5519
      32    H15     14.780553   17.288448   23.554659 H          1 MOL1         0.3769
      33    C10     15.104571   17.478010   20.815383 C.3        1 MOL1         0.1018
      34    H16     14.204460   16.881200   20.620020 H          1 MOL1         0.0783
      35    C11     15.541725   18.221299   19.508928 C.3        1 MOL1         0.1043
      36    H17     16.588771   18.523405   19.621455 H          1 MOL1         0.0783
      37    O9      14.738132   19.408774   19.283430 O.3        1 MOL1        -0.3740
      38    C12     15.439460   17.371151   18.217587 C.3        1 MOL1         0.0138
      39    H18     16.272805   16.661361   18.184225 H          1 MOL1         0.0794
      40    H19     15.562597   18.038865   17.354331 H          1 MOL1         0.0794
      41    O10     14.192594   16.670337   18.122452 O.3        1 MOL1        -0.5486
      42    H20     14.181174   16.200168   17.260425 H          1 MOL1         0.3769
      43    C13     18.510040   23.677933   22.229699 C.3        1 MOL1         0.2972
      44    H21     18.937886   24.596596   22.651650 H          1 MOL1         0.0751
      45    O11     19.533818   22.785027   21.758209 O.3        1 MOL1        -0.3740
      46    C14     17.678153   22.938010   23.303565 C.3        1 MOL1         0.1003
      47    H22     16.867347   23.612192   23.608658 H          1 MOL1         0.0783
      48    O12     18.483106   22.621850   24.451679 O.3        1 MOL1        -0.5519
      49    H23     19.406460   22.905130   24.242545 H          1 MOL1         0.3769
      50    C15     17.038425   21.655598   22.722992 C.3        1 MOL1         0.1053
      51    H24     17.839038   20.945721   22.485425 H          1 MOL1         0.0783
      52    O13     16.182433   21.096244   23.721898 O.3        1 MOL1        -0.5519
      53    H25     16.752261   21.020024   24.519615 H          1 MOL1         0.3769
      54    C16     16.256635   21.949005   21.413587 C.3        1 MOL1         0.1018
      55    H26     15.311526   22.445524   21.669623 H          1 MOL1         0.0783
      56    C17     17.067123   22.842153   20.430210 C.3        1 MOL1         0.1043
      57    H27     17.877017   22.230836   20.013456 H          1 MOL1         0.0783
      58    O14     17.643057   23.984015   21.117339 O.3        1 MOL1        -0.3740
      59    C18     16.228629   23.360160   19.237376 C.3        1 MOL1         0.0138
      60    H28     15.994712   22.510141   18.582115 H          1 MOL1         0.0794
      61    H29     16.841940   24.061469   18.655758 H          1 MOL1         0.0794
      62    O15     15.015247   23.992903   19.663219 O.3        1 MOL1        -0.5486
      63    H30     14.574356   24.359122   18.865763 H          1 MOL1         0.3769
      64    C19     23.693356   22.686301   21.386214 C.3        1 MOL1         0.2972
      65    H31     24.741262   22.967160   21.220834 H          1 MOL1         0.0751
      66    O16     23.551788   21.269704   21.599188 O.3        1 MOL1        -0.3740
      67    C20     23.157842   23.385130   22.661048 C.3        1 MOL1         0.1003
      68    H32     23.251622   24.468623   22.511505 H          1 MOL1         0.0783
      69    O17     23.933837   22.992670   23.804568 O.3        1 MOL1        -0.5519
      70    H33     24.208259   22.056199   23.649783 H          1 MOL1         0.3769
      71    C21     21.661348   23.057820   22.886111 C.3        1 MOL1         0.1053
      72    H34     21.570613   21.986823   23.115543 H          1 MOL1         0.0783
      73    O18     21.169346   23.834123   23.983098 O.3        1 MOL1        -0.5519
      74    H35     21.868306   23.769375   24.672436 H          1 MOL1         0.3769
      75    C22     20.845713   23.349544   21.602440 C.3        1 MOL1         0.1018
      76    H36     20.804406   24.434769   21.440706 H          1 MOL1         0.0783
      77    C23     21.479465   22.675534   20.357194 C.3        1 MOL1         0.1043
      78    H37     21.422139   21.587701   20.489991 H          1 MOL1         0.0783
      79    O19     22.871606   23.069822   20.259608 O.3        1 MOL1        -0.3740
      80    C24     20.755032   23.005137   19.025738 C.3        1 MOL1         0.0138
      81    H38     19.940368   22.281729   18.890227 H          1 MOL1         0.0794
      82    H39     21.456839   22.856141   18.194601 H          1 MOL1         0.0794
      83    O20     20.220390   24.334397   18.988710 O.3        1 MOL1        -0.5486
      84    H40     19.481445   24.367749   19.637838 H          1 MOL1         0.3769
      85    C25     25.127867   17.565675   20.681234 C.3        1 MOL1         0.2972
      86    H41     25.707515   16.700764   20.336104 H          1 MOL1         0.0751
      87    O21     23.807378   17.181183   21.120223 O.3        1 MOL1        -0.3740
      88    C26     25.864036   18.323414   21.817374 C.3        1 MOL1         0.1003
      89    H42     26.795702   18.717230   21.390527 H          1 MOL1         0.0783
      90    O22     26.190858   17.460536   22.916256 O.3        1 MOL1        -0.5519
      91    H43     25.334469   17.173865   23.322372 H          1 MOL1         0.3769
      92    C27     25.013206   19.526715   22.290615 C.3        1 MOL1         0.1053
      93    H44     24.095548   19.138098   22.754089 H          1 MOL1         0.0783
      94    O23     25.750017   20.293830   23.249334 O.3        1 MOL1        -0.5519
      95    H45     26.137022   19.634794   23.867076 H          1 MOL1         0.3769
      96    C28     24.607911   20.431130   21.098485 C.3        1 MOL1         0.1018
      97    H46     25.490189   21.010653   20.797371 H          1 MOL1         0.0783
      98    C29     24.067659   19.622128   19.880710 C.3        1 MOL1         0.1043
      99    H47     23.079429   19.227117   20.142322 H          1 MOL1         0.0783
     100    O24     24.958704   18.511269   19.602182 O.3        1 MOL1        -0.3740
     101    C30     23.874595   20.437400   18.576508 C.3        1 MOL1         0.0138
     102    H48     22.865298   20.867108   18.582470 H          1 MOL1         0.0794
     103    H49     23.918240   19.746310   17.724179 H          1 MOL1         0.0794
     104    O25     24.838425   21.482839   18.410319 O.3        1 MOL1        -0.5486
     105    H50     24.483611   22.268558   18.884099 H          1 MOL1         0.3769
     106    C31     21.253421   14.257958   22.427207 C.3        1 MOL1         0.2972
     107    H51     20.758067   13.355425   22.806348 H          1 MOL1         0.0751
     108    O26     20.294116   15.221371   21.945908 O.3        1 MOL1        -0.3740
     109    C32     22.082066   14.913131   23.557425 C.3        1 MOL1         0.1003
     110    H52     22.829308   14.180298   23.888518 H          1 MOL1         0.0783
     111    O27     21.236207   15.265477   24.662001 O.3        1 MOL1        -0.5519
     112    H53     20.435616   15.682016   24.271265 H          1 MOL1         0.3769
     113    C33     22.827646   16.166221   23.048885 C.3        1 MOL1         0.1053
     114    H54     22.077390   16.935808   22.835593 H          1 MOL1         0.0783
     115    O28     23.702600   16.632001   24.079963 O.3        1 MOL1        -0.5519
     116    H55     23.155089   16.625107   24.897061 H          1 MOL1         0.3769
     117    C34     23.623391   15.895699   21.744946 C.3        1 MOL1         0.1018
     118    H56     24.575228   15.411765   21.997515 H          1 MOL1         0.0783
     119    C35     22.831656   15.040699   20.715457 C.3        1 MOL1         0.1043
     120    H57     22.081344   15.699486   20.265981 H          1 MOL1         0.0783
     121    O29     22.152886   13.926761   21.348226 O.3        1 MOL1        -0.3740
     122    C36     23.704315   14.491858   19.560397 C.3        1 MOL1         0.0138
     123    H58     24.078216   15.336890   18.966592 H          1 MOL1         0.0794
     124    H59     23.066276   13.892083   18.897769 H          1 MOL1         0.0794
     125    O30     24.800539   13.696054   20.030110 O.3        1 MOL1        -0.5486
     126    H60     25.432947   14.281974   20.494746 H          1 MOL1         0.3769
     127    C1      17.007177   17.442181   25.179481 C.2        1 MOL1         0.6173
     128    O1      16.359565   16.821611   24.354272 O.co2      1 MOL1        -0.6755
     129    O2      16.719699   17.463451   26.360579 O.co2      1 MOL1        -0.6755
     130    C2      18.222608   18.199680   24.763253 C.2        1 MOL1        -0.1504
     131    H1      18.755561   18.704812   25.565169 H          1 MOL1         0.0814
     132    C3      18.679643   18.287177   23.493056 C.2        1 MOL1        -0.1394
     133    H2      18.150607   17.794194   22.681550 H          1 MOL1         0.0817
     134    C4      19.929058   19.063135   23.117425 C.3        1 MOL1        -0.1849
     135    H3      20.744591   18.770305   23.791591 H          1 MOL1         0.0736
     136    H4      19.771656   20.135530   23.288071 H          1 MOL1         0.0736
     137    C5      20.393326   18.835179   21.660508 C.3        1 MOL1        -0.1866
     138    H5      21.373479   19.309272   21.533304 H          1 MOL1         0.0738
     139    H6      20.538238   17.764800   21.481187 H          1 MOL1         0.0738
     140    C6      19.421265   19.398836   20.604869 C.3        1 MOL1        -0.2879
     141    H7      19.330193   20.483928   20.697150 H          1 MOL1         0.0750
     142    H8      19.772979   19.172325   19.590819 H          1 MOL1         0.0750
     143    H9      18.420194   18.972739   20.724051 H          1 MOL1         0.0750
@<TRIPOS>BOND
    1     1     2    1
    2     1     3    1
    3     1     4    1
    4     4     5    1
    5     4     6    1
    6     6     7    1
    7     4     8    1
    8     8     9    1
    9     8    10    1
   10    10    11    1
   11     8    12    1
   12    12    13    1
   13    12    14    1
   14    14    15    1
   15     1    16    1
   16    14    16    1
   17    14    17    1
   18    17    18    1
   19    17    19    1
   20    17    20    1
   21    20    21    1
   22    22    23    1
   23    22    24    1
   24    22    25    1
   25    25    26    1
   26    25    27    1
   27    27    28    1
   28    25    29    1
   29    29    30    1
   30    29    31    1
   31    31    32    1
   32     3    33    1
   33    29    33    1
   34    33    34    1
   35    33    35    1
   36    35    36    1
   37    22    37    1
   38    35    37    1
   39    35    38    1
   40    38    39    1
   41    38    40    1
   42    38    41    1
   43    41    42    1
   44    43    44    1
   45    43    45    1
   46    43    46    1
   47    46    47    1
   48    46    48    1
   49    48    49    1
   50    46    50    1
   51    50    51    1
   52    50    52    1
   53    52    53    1
   54    24    54    1
   55    50    54    1
   56    54    55    1
   57    54    56    1
   58    56    57    1
   59    43    58    1
   60    56    58    1
   61    56    59    1
   62    59    60    1
   63    59    61    1
   64    59    62    1
   65    62    63    1
   66    64    65    1
   67    64    66    1
   68    64    67    1
   69    67    68    1
   70    67    69    1
   71    69    70    1
   72    67    71    1
   73    71    72    1
   74    71    73    1
   75    73    74    1
   76    45    75    1
   77    71    75    1
   78    75    76    1
   79    75    77    1
   80    77    78    1
   81    64    79    1
   82    77    79    1
   83    77    80    1
   84    80    81    1
   85    80    82    1
   86    80    83    1
   87    83    84    1
   88    85    86    1
   89    85    87    1
   90    85    88    1
   91    88    89    1
   92    88    90    1
   93    90    91    1
   94    88    92    1
   95    92    93    1
   96    92    94    1
   97    94    95    1
   98    66    96    1
   99    92    96    1
  100    96    97    1
  101    96    98    1
  102    98    99    1
  103    85   100    1
  104    98   100    1
  105    98   101    1
  106   101   102    1
  107   101   103    1
  108   101   104    1
  109   104   105    1
  110   106   107    1
  111    12   108    1
  112   106   108    1
  113   106   109    1
  114   109   110    1
  115   109   111    1
  116   111   112    1
  117   109   113    1
  118   113   114    1
  119   113   115    1
  120   115   116    1
  121    87   117    1
  122   113   117    1
  123   117   118    1
  124   117   119    1
  125   119   120    1
  126   106   121    1
  127   119   121    1
  128   119   122    1
  129   122   123    1
  130   122   124    1
  131   122   125    1
  132   125   126    1
  133   127   128    1
  134   127   129    2
  135   127   130    1
  136   130   131    1
  137   130   132    2
  138   132   133    1
  139   132   134    1
  140   134   135    1
  141   134   136    1
  142   134   137    1
  143   137   138    1
  144   137   139    1
  145   137   140    1
  146   140   141    1
  147   140   142    1
  148   140   143    1
@<TRIPOS>SUBSTRUCTURE
       1 MOL1            1 RESIDUE      1      MOL     
       2 MOL1          143 RESIDUE      1      MOL     
@<SCITEGIC>MOL_PROPERTY
feprocess Rank
SciTegic.value.IntegerValue
50

@<SCITEGIC>MOL_PROPERTY
Conf_Id
SciTegic.value.IntegerValue
831

@<SCITEGIC>MOL_PROPERTY
Probability
SciTegic.value.DoubleValue
0.03

@<SCITEGIC>MOL_PROPERTY
G
SciTegic.value.DoubleValue
499.479

@<SCITEGIC>MOL_PROPERTY
E
SciTegic.value.DoubleValue
317.066

@<SCITEGIC>MOL_PROPERTY
-TS
SciTegic.value.DoubleValue
182.413

@<SCITEGIC>MOL_PROPERTY
U+W
SciTegic.value.DoubleValue
190.978

@<SCITEGIC>MOL_PROPERTY
U
SciTegic.value.DoubleValue
273.089

@<SCITEGIC>MOL_PROPERTY
W
SciTegic.value.DoubleValue
-82.111

@<SCITEGIC>MOL_PROPERTY
W(PB)
SciTegic.value.DoubleValue
-88.177

@<SCITEGIC>MOL_PROPERTY
W(SA)
SciTegic.value.DoubleValue
6.066

@<SCITEGIC>MOL_PROPERTY
Valence
SciTegic.value.DoubleValue
148.546

@<SCITEGIC>MOL_PROPERTY
Coulomb
SciTegic.value.DoubleValue
149.517

@<SCITEGIC>MOL_PROPERTY
VdW
SciTegic.value.DoubleValue
-24.974

@<SCITEGIC>MOL_PROPERTY
VdW6
SciTegic.value.DoubleValue
-182.620

@<SCITEGIC>MOL_PROPERTY
VdW12
SciTegic.value.DoubleValue
157.646

@<SCITEGIC>MOL_PROPERTY
Bond
SciTegic.value.DoubleValue
4.979

@<SCITEGIC>MOL_PROPERTY
Angle
SciTegic.value.DoubleValue
15.837

@<SCITEGIC>MOL_PROPERTY
Pdih
SciTegic.value.DoubleValue
127.729

@<SCITEGIC>MOL_PROPERTY
Idih
SciTegic.value.DoubleValue
0.001

@<SCITEGIC>MOL_PROPERTY
Tether
SciTegic.value.DoubleValue
0.000

@<TRIPOS>MOLECULE
CD_guest-s19_fast_vm2_rndm.mol2 : feprocess host+ligand conformer 51
         143         148           2
SMALL
USER_CHARGES
 
@<TRIPOS>ATOM
       1    C1      16.122638   15.153816   20.514870 C.3        1 MOL1         0.2972
       2    H1      15.074537   15.015502   20.219688 H          1 MOL1         0.0751
       3    O1      16.389251   16.512522   20.922386 O.3        1 MOL1        -0.3740
       4    C2      16.525674   14.185708   21.658114 C.3        1 MOL1         0.1003
       5    H2      16.456333   13.167245   21.253995 H          1 MOL1         0.0783
       6    O2      15.646948   14.287542   22.787197 O.3        1 MOL1        -0.5519
       7    H3      15.681428   15.226809   23.100256 H          1 MOL1         0.3769
       8    C3      17.998973   14.426969   22.075442 C.3        1 MOL1         0.1053
       9    H4      18.076731   15.437631   22.501414 H          1 MOL1         0.0783
      10    O3      18.366879   13.454616   23.060246 O.3        1 MOL1        -0.5519
      11    H5      17.575249   13.369920   23.639392 H          1 MOL1         0.3769
      12    C4      18.942299   14.342859   20.841775 C.3        1 MOL1         0.1018
      13    H6      19.066739   13.291035   20.555061 H          1 MOL1         0.0783
      14    C5      18.397901   15.143480   19.625402 C.3        1 MOL1         0.1043
      15    H7      18.500300   16.209520   19.855512 H          1 MOL1         0.0783
      16    O4      16.995496   14.850082   19.405607 O.3        1 MOL1        -0.3740
      17    C6      19.179565   14.894066   18.312087 C.3        1 MOL1         0.0138
      18    H8      20.151374   15.400788   18.384531 H          1 MOL1         0.0794
      19    H9      18.630789   15.365734   17.486272 H          1 MOL1         0.0794
      20    O5      19.378851   13.501470   18.039511 O.3        1 MOL1        -0.5486
      21    H10     20.066832   13.176462   18.659231 H          1 MOL1         0.3769
      22    C7      14.828659   20.180315   21.940022 C.3        1 MOL1         0.2972
      23    H11     14.222485   21.050973   22.221773 H          1 MOL1         0.0751
      24    O6      16.185567   20.560291   21.637106 O.3        1 MOL1        -0.3740
      25    C8      14.821976   19.144000   23.089497 C.3        1 MOL1         0.1003
      26    H12     13.790136   18.783285   23.189406 H          1 MOL1         0.0783
      27    O7      15.221146   19.732457   24.335075 O.3        1 MOL1        -0.5519
      28    H13     16.205510   19.881775   24.281823 H          1 MOL1         0.3769
      29    C9      15.713728   17.934656   22.729573 C.3        1 MOL1         0.1053
      30    H14     16.750271   18.283252   22.626861 H          1 MOL1         0.0783
      31    O8      15.633603   16.965872   23.778901 O.3        1 MOL1        -0.5519
      32    H15     15.853962   17.468474   24.595749 H          1 MOL1         0.3769
      33    C10     15.281312   17.314040   21.376880 C.3        1 MOL1         0.1018
      34    H16     14.372304   16.717646   21.530702 H          1 MOL1         0.0783
      35    C11     15.045569   18.389812   20.275009 C.3        1 MOL1         0.1043
      36    H17     16.032218   18.745368   19.959945 H          1 MOL1         0.0783
      37    O9      14.283275   19.523607   20.774009 O.3        1 MOL1        -0.3740
      38    C12     14.339535   17.833576   19.016185 C.3        1 MOL1         0.0138
      39    H18     15.033052   17.156190   18.499396 H          1 MOL1         0.0794
      40    H19     14.128138   18.667673   18.333588 H          1 MOL1         0.0794
      41    O10     13.131061   17.135888   19.341884 O.3        1 MOL1        -0.5486
      42    H20     12.701937   16.873177   18.498448 H          1 MOL1         0.3769
      43    C13     18.540400   23.870022   20.727708 C.3        1 MOL1         0.2972
      44    H21     18.927782   24.833610   20.372893 H          1 MOL1         0.0751
      45    O11     19.613600   22.981130   21.100928 O.3        1 MOL1        -0.3740
      46    C14     17.576064   24.066701   21.928090 C.3        1 MOL1         0.1003
      47    H22     16.746872   24.688216   21.565793 H          1 MOL1         0.0783
      48    O12     18.210114   24.746653   23.021879 O.3        1 MOL1        -0.5519
      49    H23     18.955197   24.169451   23.327447 H          1 MOL1         0.3769
      50    C15     16.975306   22.716736   22.395583 C.3        1 MOL1         0.1053
      51    H24     17.774649   22.111939   22.848641 H          1 MOL1         0.0783
      52    O13     15.950377   22.987226   23.357637 O.3        1 MOL1        -0.5519
      53    H25     16.373859   23.554492   24.037411 H          1 MOL1         0.3769
      54    C16     16.376604   21.921927   21.205140 C.3        1 MOL1         0.1018
      55    H26     15.428032   22.394926   20.920182 H          1 MOL1         0.0783
      56    C17     17.317491   21.890066   19.967663 C.3        1 MOL1         0.1043
      57    H27     18.180620   21.255453   20.206414 H          1 MOL1         0.0783
      58    O14     17.780255   23.232224   19.678454 O.3        1 MOL1        -0.3740
      59    C18     16.664897   21.314227   18.681492 C.3        1 MOL1         0.0138
      60    H28     16.849195   20.235084   18.647175 H          1 MOL1         0.0794
      61    H29     17.173958   21.744881   17.808962 H          1 MOL1         0.0794
      62    O15     15.254512   21.556775   18.596328 O.3        1 MOL1        -0.5486
      63    H30     14.820991   21.002771   19.286338 H          1 MOL1         0.3769
      64    C19     23.648836   22.778448   21.966955 C.3        1 MOL1         0.2972
      65    H31     24.701843   22.948576   22.225226 H          1 MOL1         0.0751
      66    O16     23.423832   21.436133   21.490941 O.3        1 MOL1        -0.3740
      67    C20     22.741859   23.043947   23.195665 C.3        1 MOL1         0.1003
      68    H32     22.853351   24.104163   23.457766 H          1 MOL1         0.0783
      69    O17     23.125647   22.245253   24.325396 O.3        1 MOL1        -0.5519
      70    H33     23.734225   21.539831   23.994778 H          1 MOL1         0.3769
      71    C21     21.257144   22.800881   22.843160 C.3        1 MOL1         0.1053
      72    H34     21.129078   21.731174   22.642510 H          1 MOL1         0.0783
      73    O18     20.446723   23.184544   23.958367 O.3        1 MOL1        -0.5519
      74    H35     20.849694   22.723513   24.728085 H          1 MOL1         0.3769
      75    C22     20.834195   23.587961   21.576000 C.3        1 MOL1         0.1018
      76    H36     20.688003   24.640033   21.854038 H          1 MOL1         0.0783
      77    C23     21.878469   23.486375   20.424347 C.3        1 MOL1         0.1043
      78    H37     21.806633   22.481057   19.990227 H          1 MOL1         0.0783
      79    O19     23.226332   23.686500   20.927847 O.3        1 MOL1        -0.3740
      80    C24     21.631233   24.492542   19.275030 C.3        1 MOL1         0.0138
      81    H38     20.732569   24.179783   18.726272 H          1 MOL1         0.0794
      82    H39     22.475739   24.438107   18.575032 H          1 MOL1         0.0794
      83    O20     21.466470   25.833317   19.753887 O.3        1 MOL1        -0.5486
      84    H40     21.397637   26.422906   18.971437 H          1 MOL1         0.3769
      85    C25     25.102237   17.713653   20.952795 C.3        1 MOL1         0.2972
      86    H41     25.722610   16.834536   20.736797 H          1 MOL1         0.0751
      87    O21     23.707516   17.354834   21.080215 O.3        1 MOL1        -0.3740
      88    C26     25.585901   18.437691   22.237154 C.3        1 MOL1         0.1003
      89    H42     26.602532   18.799653   22.035235 H          1 MOL1         0.0783
      90    O22     25.628796   17.561921   23.373122 O.3        1 MOL1        -0.5519
      91    H43     24.694791   17.288229   23.557732 H          1 MOL1         0.3769
      92    C27     24.696115   19.668649   22.532456 C.3        1 MOL1         0.1053
      93    H44     23.690177   19.309191   22.789987 H          1 MOL1         0.0783
      94    O23     25.252161   20.388601   23.636018 O.3        1 MOL1        -0.5519
      95    H45     25.527994   19.697350   24.279731 H          1 MOL1         0.3769
      96    C28     24.580708   20.599427   21.295622 C.3        1 MOL1         0.1018
      97    H46     25.501461   21.189574   21.207438 H          1 MOL1         0.0783
      98    C29     24.344282   19.823661   19.966767 C.3        1 MOL1         0.1043
      99    H47     23.308071   19.472004   19.950632 H          1 MOL1         0.0783
     100    O24     25.221757   18.673361   19.880189 O.3        1 MOL1        -0.3740
     101    C30     24.526904   20.693649   18.698949 C.3        1 MOL1         0.0138
     102    H48     23.682991   21.393442   18.631720 H          1 MOL1         0.0794
     103    H49     24.474502   20.038601   17.819247 H          1 MOL1         0.0794
     104    O25     25.760984   21.422065   18.695897 O.3        1 MOL1        -0.5486
     105    H50     25.648748   22.194991   19.289795 H          1 MOL1         0.3769
     106    C31     21.176247   14.128469   21.848017 C.3        1 MOL1         0.2972
     107    H51     20.754625   13.154805   22.128219 H          1 MOL1         0.0751
     108    O26     20.207033   14.950126   21.171023 O.3        1 MOL1        -0.3740
     109    C32     21.681964   14.881689   23.106026 C.3        1 MOL1         0.1003
     110    H52     22.456630   14.253945   23.565313 H          1 MOL1         0.0783
     111    O27     20.625839   15.090482   24.057422 O.3        1 MOL1        -0.5519
     112    H53     19.872289   14.512071   23.788194 H          1 MOL1         0.3769
     113    C33     22.328643   16.234238   22.721941 C.3        1 MOL1         0.1053
     114    H54     21.540591   16.888862   22.327441 H          1 MOL1         0.0783
     115    O28     22.900108   16.818684   23.896483 O.3        1 MOL1        -0.5519
     116    H55     22.180624   16.773077   24.566549 H          1 MOL1         0.3769
     117    C34     23.410734   16.050516   21.625348 C.3        1 MOL1         0.1018
     118    H56     24.295569   15.587266   22.081405 H          1 MOL1         0.0783
     119    C35     22.906573   15.164980   20.450885 C.3        1 MOL1         0.1043
     120    H57     22.154091   15.736629   19.892264 H          1 MOL1         0.0783
     121    O29     22.300481   13.949032   20.960588 O.3        1 MOL1        -0.3740
     122    C36     24.020731   14.772677   19.451053 C.3        1 MOL1         0.0138
     123    H58     24.311904   15.668570   18.886047 H          1 MOL1         0.0794
     124    H59     23.607593   14.053337   18.731363 H          1 MOL1         0.0794
     125    O30     25.168018   14.218363   20.107756 O.3        1 MOL1        -0.5486
     126    H60     25.793968   13.920050   19.412290 H          1 MOL1         0.3769
     127    C1      19.150698   19.379016   24.584073 C.2        1 MOL1         0.6173
     128    O1      17.976541   19.619056   24.375332 O.co2      1 MOL1        -0.6755
     129    O2      19.609677   19.221157   25.699119 O.co2      1 MOL1        -0.6755
     130    C2      20.097477   19.306206   23.439571 C.2        1 MOL1        -0.1504
     131    H1      21.139152   19.144367   23.705290 H          1 MOL1         0.0814
     132    C3      19.738231   19.453691   22.143500 C.2        1 MOL1        -0.1394
     133    H2      18.699900   19.627391   21.869863 H          1 MOL1         0.0817
     134    C4      20.740674   19.452193   21.008985 C.3        1 MOL1        -0.1849
     135    H3      21.734193   19.259651   21.426843 H          1 MOL1         0.0736
     136    H4      20.785961   20.447398   20.551209 H          1 MOL1         0.0736
     137    C5      20.457521   18.396017   19.922157 C.3        1 MOL1        -0.1866
     138    H5      21.330741   18.317848   19.261197 H          1 MOL1         0.0738
     139    H6      20.335128   17.416360   20.395198 H          1 MOL1         0.0738
     140    C6      19.217325   18.734029   19.073075 C.3        1 MOL1        -0.2879
     141    H7      19.320655   19.723510   18.610336 H          1 MOL1         0.0750
     142    H8      19.082538   17.998617   18.270525 H          1 MOL1         0.0750
     143    H9      18.314188   18.728193   19.694170 H          1 MOL1         0.0750
@<TRIPOS>BOND
    1     1     2    1
    2     1     3    1
    3     1     4    1
    4     4     5    1
    5     4     6    1
    6     6     7    1
    7     4     8    1
    8     8     9    1
    9     8    10    1
   10    10    11    1
   11     8    12    1
   12    12    13    1
   13    12    14    1
   14    14    15    1
   15     1    16    1
   16    14    16    1
   17    14    17    1
   18    17    18    1
   19    17    19    1
   20    17    20    1
   21    20    21    1
   22    22    23    1
   23    22    24    1
   24    22    25    1
   25    25    26    1
   26    25    27    1
   27    27    28    1
   28    25    29    1
   29    29    30    1
   30    29    31    1
   31    31    32    1
   32     3    33    1
   33    29    33    1
   34    33    34    1
   35    33    35    1
   36    35    36    1
   37    22    37    1
   38    35    37    1
   39    35    38    1
   40    38    39    1
   41    38    40    1
   42    38    41    1
   43    41    42    1
   44    43    44    1
   45    43    45    1
   46    43    46    1
   47    46    47    1
   48    46    48    1
   49    48    49    1
   50    46    50    1
   51    50    51    1
   52    50    52    1
   53    52    53    1
   54    24    54    1
   55    50    54    1
   56    54    55    1
   57    54    56    1
   58    56    57    1
   59    43    58    1
   60    56    58    1
   61    56    59    1
   62    59    60    1
   63    59    61    1
   64    59    62    1
   65    62    63    1
   66    64    65    1
   67    64    66    1
   68    64    67    1
   69    67    68    1
   70    67    69    1
   71    69    70    1
   72    67    71    1
   73    71    72    1
   74    71    73    1
   75    73    74    1
   76    45    75    1
   77    71    75    1
   78    75    76    1
   79    75    77    1
   80    77    78    1
   81    64    79    1
   82    77    79    1
   83    77    80    1
   84    80    81    1
   85    80    82    1
   86    80    83    1
   87    83    84    1
   88    85    86    1
   89    85    87    1
   90    85    88    1
   91    88    89    1
   92    88    90    1
   93    90    91    1
   94    88    92    1
   95    92    93    1
   96    92    94    1
   97    94    95    1
   98    66    96    1
   99    92    96    1
  100    96    97    1
  101    96    98    1
  102    98    99    1
  103    85   100    1
  104    98   100    1
  105    98   101    1
  106   101   102    1
  107   101   103    1
  108   101   104    1
  109   104   105    1
  110   106   107    1
  111    12   108    1
  112   106   108    1
  113   106   109    1
  114   109   110    1
  115   109   111    1
  116   111   112    1
  117   109   113    1
  118   113   114    1
  119   113   115    1
  120   115   116    1
  121    87   117    1
  122   113   117    1
  123   117   118    1
  124   117   119    1
  125   119   120    1
  126   106   121    1
  127   119   121    1
  128   119   122    1
  129   122   123    1
  130   122   124    1
  131   122   125    1
  132   125   126    1
  133   127   128    1
  134   127   129    2
  135   127   130    1
  136   130   131    1
  137   130   132    2
  138   132   133    1
  139   132   134    1
  140   134   135    1
  141   134   136    1
  142   134   137    1
  143   137   138    1
  144   137   139    1
  145   137   140    1
  146   140   141    1
  147   140   142    1
  148   140   143    1
@<TRIPOS>SUBSTRUCTURE
       1 MOL1            1 RESIDUE      1      MOL     
       2 MOL1          143 RESIDUE      1      MOL     
@<SCITEGIC>MOL_PROPERTY
feprocess Rank
SciTegic.value.IntegerValue
51

@<SCITEGIC>MOL_PROPERTY
Conf_Id
SciTegic.value.IntegerValue
963

@<SCITEGIC>MOL_PROPERTY
Probability
SciTegic.value.DoubleValue
0.02

@<SCITEGIC>MOL_PROPERTY
G
SciTegic.value.DoubleValue
499.631

@<SCITEGIC>MOL_PROPERTY
E
SciTegic.value.DoubleValue
317.109

@<SCITEGIC>MOL_PROPERTY
-TS
SciTegic.value.DoubleValue
182.522

@<SCITEGIC>MOL_PROPERTY
U+W
SciTegic.value.DoubleValue
191.021

@<SCITEGIC>MOL_PROPERTY
U
SciTegic.value.DoubleValue
272.513

@<SCITEGIC>MOL_PROPERTY
W
SciTegic.value.DoubleValue
-81.492

@<SCITEGIC>MOL_PROPERTY
W(PB)
SciTegic.value.DoubleValue
-87.493

@<SCITEGIC>MOL_PROPERTY
W(SA)
SciTegic.value.DoubleValue
6.001

@<SCITEGIC>MOL_PROPERTY
Valence
SciTegic.value.DoubleValue
147.648

@<SCITEGIC>MOL_PROPERTY
Coulomb
SciTegic.value.DoubleValue
148.562

@<SCITEGIC>MOL_PROPERTY
VdW
SciTegic.value.DoubleValue
-23.697

@<SCITEGIC>MOL_PROPERTY
VdW6
SciTegic.value.DoubleValue
-180.694

@<SCITEGIC>MOL_PROPERTY
VdW12
SciTegic.value.DoubleValue
156.997

@<SCITEGIC>MOL_PROPERTY
Bond
SciTegic.value.DoubleValue
5.009

@<SCITEGIC>MOL_PROPERTY
Angle
SciTegic.value.DoubleValue
15.072

@<SCITEGIC>MOL_PROPERTY
Pdih
SciTegic.value.DoubleValue
127.559

@<SCITEGIC>MOL_PROPERTY
Idih
SciTegic.value.DoubleValue
0.009

@<SCITEGIC>MOL_PROPERTY
Tether
SciTegic.value.DoubleValue
0.000

@<TRIPOS>MOLECULE
CD_guest-s19_fast_vm2_rndm.mol2 : feprocess host+ligand conformer 52
         143         148           2
SMALL
USER_CHARGES
 
@<TRIPOS>ATOM
       1    C1      16.193619   15.115102   21.270398 C.3        1 MOL1         0.2972
       2    H1      15.144469   14.874032   21.056807 H          1 MOL1         0.0751
       3    O1      16.357622   16.511778   21.586813 O.3        1 MOL1        -0.3740
       4    C2      16.675168   14.305226   22.501343 C.3        1 MOL1         0.1003
       5    H2      16.549427   13.239538   22.269883 H          1 MOL1         0.0783
       6    O2      15.884732   14.641066   23.652431 O.3        1 MOL1        -0.5519
       7    H3      15.657280   15.598024   23.563999 H          1 MOL1         0.3769
       8    C3      18.174933   14.563034   22.784426 C.3        1 MOL1         0.1053
       9    H4      18.282961   15.606384   23.106206 H          1 MOL1         0.0783
      10    O3      18.628022   13.688267   23.822454 O.3        1 MOL1        -0.5519
      11    H5      17.928084   13.727276   24.512184 H          1 MOL1         0.3769
      12    C4      19.018384   14.356509   21.502955 C.3        1 MOL1         0.1018
      13    H6      19.039883   13.286386   21.257671 H          1 MOL1         0.0783
      14    C5      18.435664   15.140383   20.299121 C.3        1 MOL1         0.1043
      15    H7      18.519607   16.212899   20.518271 H          1 MOL1         0.0783
      16    O4      17.037284   14.790574   20.141730 O.3        1 MOL1        -0.3740
      17    C6      19.175278   14.892185   18.957395 C.3        1 MOL1         0.0138
      18    H8      19.975003   15.637533   18.861728 H          1 MOL1         0.0794
      19    H9      18.475328   15.070627   18.130373 H          1 MOL1         0.0794
      20    O5      19.733574   13.576433   18.850907 O.3        1 MOL1        -0.5486
      21    H10     20.485886   13.526000   19.485256 H          1 MOL1         0.3769
      22    C7      14.818153   20.291873   20.673283 C.3        1 MOL1         0.2972
      23    H11     14.193057   21.113861   20.301445 H          1 MOL1         0.0751
      24    O6      16.065875   20.770902   21.214079 O.3        1 MOL1        -0.3740
      25    C8      14.082715   19.511212   21.792265 C.3        1 MOL1         0.1003
      26    H12     13.143778   19.134349   21.366450 H          1 MOL1         0.0783
      27    O7      13.784424   20.370126   22.904905 O.3        1 MOL1        -0.5519
      28    H13     14.586483   20.928213   23.071713 H          1 MOL1         0.3769
      29    C9      14.916956   18.291631   22.257832 C.3        1 MOL1         0.1053
      30    H14     15.817063   18.667643   22.762037 H          1 MOL1         0.0783
      31    O8      14.143981   17.504847   23.170845 O.3        1 MOL1        -0.5519
      32    H15     13.754157   18.152337   23.799283 H          1 MOL1         0.3769
      33    C10     15.367911   17.418255   21.059488 C.3        1 MOL1         0.1018
      34    H16     14.490498   16.888507   20.666006 H          1 MOL1         0.0783
      35    C11     16.008131   18.283853   19.936580 C.3        1 MOL1         0.1043
      36    H17     16.943742   18.697357   20.326483 H          1 MOL1         0.0783
      37    O9      15.108494   19.367389   19.604968 O.3        1 MOL1        -0.3740
      38    C12     16.350769   17.543396   18.619527 C.3        1 MOL1         0.0138
      39    H18     17.368146   17.143957   18.697971 H          1 MOL1         0.0794
      40    H19     16.365664   18.277058   17.802507 H          1 MOL1         0.0794
      41    O10     15.436501   16.486610   18.309155 O.3        1 MOL1        -0.5486
      42    H20     15.749568   15.693835   18.802542 H          1 MOL1         0.3769
      43    C13     18.432553   24.178513   21.373557 C.3        1 MOL1         0.2972
      44    H21     18.844569   25.194444   21.342274 H          1 MOL1         0.0751
      45    O11     19.465586   23.182679   21.534492 O.3        1 MOL1        -0.3740
      46    C14     17.400032   24.036722   22.522547 C.3        1 MOL1         0.1003
      47    H22     16.555466   24.696137   22.284504 H          1 MOL1         0.0783
      48    O12     17.955920   24.451341   23.777411 O.3        1 MOL1        -0.5519
      49    H23     18.784450   23.932519   23.926820 H          1 MOL1         0.3769
      50    C15     16.860250   22.584352   22.565186 C.3        1 MOL1         0.1053
      51    H24     17.699597   21.908481   22.768188 H          1 MOL1         0.0783
      52    O13     15.859712   22.434924   23.580587 O.3        1 MOL1        -0.5519
      53    H25     16.361708   22.353162   24.435270 H          1 MOL1         0.3769
      54    C16     16.261530   22.199241   21.191408 C.3        1 MOL1         0.1018
      55    H26     15.313501   22.740326   21.073091 H          1 MOL1         0.0783
      56    C17     17.216416   22.538523   20.009274 C.3        1 MOL1         0.1043
      57    H27     18.054848   21.831121   20.034431 H          1 MOL1         0.0783
      58    O14     17.732807   23.888966   20.144892 O.3        1 MOL1        -0.3740
      59    C18     16.549349   22.414176   18.618486 C.3        1 MOL1         0.0138
      60    H28     16.393307   21.349607   18.399819 H          1 MOL1         0.0794
      61    H29     17.243771   22.802425   17.861515 H          1 MOL1         0.0794
      62    O15     15.299394   23.113071   18.553119 O.3        1 MOL1        -0.5486
      63    H30     14.961921   23.033028   17.634489 H          1 MOL1         0.3769
      64    C19     23.547308   22.559029   22.039794 C.3        1 MOL1         0.2972
      65    H31     24.625971   22.687008   22.199136 H          1 MOL1         0.0751
      66    O16     23.225336   21.187350   21.740532 O.3        1 MOL1        -0.3740
      67    C20     22.785434   22.968477   23.323016 C.3        1 MOL1         0.1003
      68    H32     23.036525   24.015198   23.537313 H          1 MOL1         0.0783
      69    O17     23.215620   22.147188   24.418921 O.3        1 MOL1        -0.5519
      70    H33     23.427715   21.265898   24.036414 H          1 MOL1         0.3769
      71    C21     21.251753   22.881649   23.123309 C.3        1 MOL1         0.1053
      72    H34     20.972684   21.823725   23.024166 H          1 MOL1         0.0783
      73    O18     20.592735   23.457440   24.254001 O.3        1 MOL1        -0.5519
      74    H35     20.540472   22.739523   24.941569 H          1 MOL1         0.3769
      75    C22     20.803912   23.627869   21.839240 C.3        1 MOL1         0.1018
      76    H36     20.849815   24.708714   22.024074 H          1 MOL1         0.0783
      77    C23     21.684258   23.258453   20.613550 C.3        1 MOL1         0.1043
      78    H37     21.463278   22.216464   20.353070 H          1 MOL1         0.0783
      79    O19     23.092226   23.377265   20.941262 O.3        1 MOL1        -0.3740
      80    C24     21.398049   24.114250   19.355587 C.3        1 MOL1         0.0138
      81    H38     20.388703   23.879568   18.990614 H          1 MOL1         0.0794
      82    H39     22.103050   23.818555   18.567337 H          1 MOL1         0.0794
      83    O20     21.512506   25.519991   19.609410 O.3        1 MOL1        -0.5486
      84    H40     20.715529   25.803953   20.102384 H          1 MOL1         0.3769
      85    C25     24.914114   17.629575   20.462914 C.3        1 MOL1         0.2972
      86    H41     25.509546   16.822291   20.017376 H          1 MOL1         0.0751
      87    O21     23.638339   17.148914   20.939037 O.3        1 MOL1        -0.3740
      88    C26     25.673810   18.321376   21.625562 C.3        1 MOL1         0.1003
      89    H42     26.560638   18.800015   21.190004 H          1 MOL1         0.0783
      90    O22     26.103717   17.385784   22.624703 O.3        1 MOL1        -0.5519
      91    H43     25.287430   16.980163   23.011604 H          1 MOL1         0.3769
      92    C27     24.793392   19.433147   22.247744 C.3        1 MOL1         0.1053
      93    H44     23.917119   18.961402   22.713872 H          1 MOL1         0.0783
      94    O23     25.546822   20.140364   23.237182 O.3        1 MOL1        -0.5519
      95    H45     25.996082   19.445308   23.767096 H          1 MOL1         0.3769
      96    C28     24.296281   20.419094   21.158652 C.3        1 MOL1         0.1018
      97    H46     25.141932   21.052959   20.861673 H          1 MOL1         0.0783
      98    C29     23.737072   19.701030   19.896372 C.3        1 MOL1         0.1043
      99    H47     22.779156   19.240637   20.158653 H          1 MOL1         0.0783
     100    O24     24.655027   18.658019   19.479699 O.3        1 MOL1        -0.3740
     101    C30     23.459765   20.637964   18.690664 C.3        1 MOL1         0.0138
     102    H48     22.427488   21.001000   18.762529 H          1 MOL1         0.0794
     103    H49     23.521437   20.046426   17.767523 H          1 MOL1         0.0794
     104    O25     24.352653   21.756569   18.618021 O.3        1 MOL1        -0.5486
     105    H50     24.096947   22.380348   19.337148 H          1 MOL1         0.3769
     106    C31     21.360806   13.902241   22.006349 C.3        1 MOL1         0.2972
     107    H51     20.936517   12.928919   22.285276 H          1 MOL1         0.0751
     108    O26     20.333768   14.878303   21.752014 O.3        1 MOL1        -0.3740
     109    C32     22.256625   14.434984   23.147311 C.3        1 MOL1         0.1003
     110    H52     23.085613   13.726949   23.276248 H          1 MOL1         0.0783
     111    O27     21.514037   14.525658   24.374158 O.3        1 MOL1        -0.5519
     112    H53     20.556622   14.466143   24.134777 H          1 MOL1         0.3769
     113    C33     22.853147   15.810576   22.772435 C.3        1 MOL1         0.1053
     114    H54     22.029701   16.533064   22.724900 H          1 MOL1         0.0783
     115    O28     23.773201   16.205324   23.793457 O.3        1 MOL1        -0.5519
     116    H55     23.294345   16.036170   24.636139 H          1 MOL1         0.3769
     117    C34     23.550479   15.780788   21.385196 C.3        1 MOL1         0.1018
     118    H56     24.538898   15.314671   21.491811 H          1 MOL1         0.0783
     119    C35     22.715323   15.032933   20.304823 C.3        1 MOL1         0.1043
     120    H57     21.884294   15.690160   20.021152 H          1 MOL1         0.0783
     121    O29     22.172196   13.788517   20.819027 O.3        1 MOL1        -0.3740
     122    C36     23.511067   14.726600   19.013916 C.3        1 MOL1         0.0138
     123    H58     23.702667   15.673106   18.490443 H          1 MOL1         0.0794
     124    H59     22.886074   14.109695   18.354199 H          1 MOL1         0.0794
     125    O30     24.751478   14.064122   19.289280 O.3        1 MOL1        -0.5486
     126    H60     25.163984   13.833724   18.428253 H          1 MOL1         0.3769
     127    C1      18.611034   20.989485   25.335281 C.2        1 MOL1         0.6173
     128    O1      17.569851   21.535070   25.648132 O.co2      1 MOL1        -0.6755
     129    O2      19.695365   21.313518   25.784006 O.co2      1 MOL1        -0.6755
     130    C2      18.534959   19.920959   24.302470 C.2        1 MOL1        -0.1504
     131    H1      17.537456   19.682105   23.943996 H          1 MOL1         0.0814
     132    C3      19.613249   19.278284   23.801177 C.2        1 MOL1        -0.1394
     133    H2      20.616543   19.518368   24.152129 H          1 MOL1         0.0817
     134    C4      19.533002   18.199624   22.741973 C.3        1 MOL1        -0.1849
     135    H3      18.497387   18.057162   22.407586 H          1 MOL1         0.0736
     136    H4      19.851125   17.250047   23.188460 H          1 MOL1         0.0736
     137    C5      20.434438   18.509115   21.529046 C.3        1 MOL1        -0.1866
     138    H5      21.451146   18.718936   21.885450 H          1 MOL1         0.0738
     139    H6      20.501427   17.622073   20.886379 H          1 MOL1         0.0738
     140    C6      19.919050   19.701307   20.698904 C.3        1 MOL1        -0.2879
     141    H7      19.856329   20.602837   21.317762 H          1 MOL1         0.0750
     142    H8      20.584517   19.909642   19.854344 H          1 MOL1         0.0750
     143    H9      18.923017   19.499182   20.295481 H          1 MOL1         0.0750
@<TRIPOS>BOND
    1     1     2    1
    2     1     3    1
    3     1     4    1
    4     4     5    1
    5     4     6    1
    6     6     7    1
    7     4     8    1
    8     8     9    1
    9     8    10    1
   10    10    11    1
   11     8    12    1
   12    12    13    1
   13    12    14    1
   14    14    15    1
   15     1    16    1
   16    14    16    1
   17    14    17    1
   18    17    18    1
   19    17    19    1
   20    17    20    1
   21    20    21    1
   22    22    23    1
   23    22    24    1
   24    22    25    1
   25    25    26    1
   26    25    27    1
   27    27    28    1
   28    25    29    1
   29    29    30    1
   30    29    31    1
   31    31    32    1
   32     3    33    1
   33    29    33    1
   34    33    34    1
   35    33    35    1
   36    35    36    1
   37    22    37    1
   38    35    37    1
   39    35    38    1
   40    38    39    1
   41    38    40    1
   42    38    41    1
   43    41    42    1
   44    43    44    1
   45    43    45    1
   46    43    46    1
   47    46    47    1
   48    46    48    1
   49    48    49    1
   50    46    50    1
   51    50    51    1
   52    50    52    1
   53    52    53    1
   54    24    54    1
   55    50    54    1
   56    54    55    1
   57    54    56    1
   58    56    57    1
   59    43    58    1
   60    56    58    1
   61    56    59    1
   62    59    60    1
   63    59    61    1
   64    59    62    1
   65    62    63    1
   66    64    65    1
   67    64    66    1
   68    64    67    1
   69    67    68    1
   70    67    69    1
   71    69    70    1
   72    67    71    1
   73    71    72    1
   74    71    73    1
   75    73    74    1
   76    45    75    1
   77    71    75    1
   78    75    76    1
   79    75    77    1
   80    77    78    1
   81    64    79    1
   82    77    79    1
   83    77    80    1
   84    80    81    1
   85    80    82    1
   86    80    83    1
   87    83    84    1
   88    85    86    1
   89    85    87    1
   90    85    88    1
   91    88    89    1
   92    88    90    1
   93    90    91    1
   94    88    92    1
   95    92    93    1
   96    92    94    1
   97    94    95    1
   98    66    96    1
   99    92    96    1
  100    96    97    1
  101    96    98    1
  102    98    99    1
  103    85   100    1
  104    98   100    1
  105    98   101    1
  106   101   102    1
  107   101   103    1
  108   101   104    1
  109   104   105    1
  110   106   107    1
  111    12   108    1
  112   106   108    1
  113   106   109    1
  114   109   110    1
  115   109   111    1
  116   111   112    1
  117   109   113    1
  118   113   114    1
  119   113   115    1
  120   115   116    1
  121    87   117    1
  122   113   117    1
  123   117   118    1
  124   117   119    1
  125   119   120    1
  126   106   121    1
  127   119   121    1
  128   119   122    1
  129   122   123    1
  130   122   124    1
  131   122   125    1
  132   125   126    1
  133   127   128    1
  134   127   129    2
  135   127   130    1
  136   130   131    1
  137   130   132    2
  138   132   133    1
  139   132   134    1
  140   134   135    1
  141   134   136    1
  142   134   137    1
  143   137   138    1
  144   137   139    1
  145   137   140    1
  146   140   141    1
  147   140   142    1
  148   140   143    1
@<TRIPOS>SUBSTRUCTURE
       1 MOL1            1 RESIDUE      1      MOL     
       2 MOL1          143 RESIDUE      1      MOL     
@<SCITEGIC>MOL_PROPERTY
feprocess Rank
SciTegic.value.IntegerValue
52

@<SCITEGIC>MOL_PROPERTY
Conf_Id
SciTegic.value.IntegerValue
4

@<SCITEGIC>MOL_PROPERTY
Probability
SciTegic.value.DoubleValue
0.02

@<SCITEGIC>MOL_PROPERTY
G
SciTegic.value.DoubleValue
499.638

@<SCITEGIC>MOL_PROPERTY
E
SciTegic.value.DoubleValue
317.143

@<SCITEGIC>MOL_PROPERTY
-TS
SciTegic.value.DoubleValue
182.495

@<SCITEGIC>MOL_PROPERTY
U+W
SciTegic.value.DoubleValue
191.055

@<SCITEGIC>MOL_PROPERTY
U
SciTegic.value.DoubleValue
272.169

@<SCITEGIC>MOL_PROPERTY
W
SciTegic.value.DoubleValue
-81.114

@<SCITEGIC>MOL_PROPERTY
W(PB)
SciTegic.value.DoubleValue
-87.135

@<SCITEGIC>MOL_PROPERTY
W(SA)
SciTegic.value.DoubleValue
6.020

@<SCITEGIC>MOL_PROPERTY
Valence
SciTegic.value.DoubleValue
151.076

@<SCITEGIC>MOL_PROPERTY
Coulomb
SciTegic.value.DoubleValue
146.138

@<SCITEGIC>MOL_PROPERTY
VdW
SciTegic.value.DoubleValue
-25.045

@<SCITEGIC>MOL_PROPERTY
VdW6
SciTegic.value.DoubleValue
-181.418

@<SCITEGIC>MOL_PROPERTY
VdW12
SciTegic.value.DoubleValue
156.373

@<SCITEGIC>MOL_PROPERTY
Bond
SciTegic.value.DoubleValue
4.868

@<SCITEGIC>MOL_PROPERTY
Angle
SciTegic.value.DoubleValue
13.993

@<SCITEGIC>MOL_PROPERTY
Pdih
SciTegic.value.DoubleValue
132.208

@<SCITEGIC>MOL_PROPERTY
Idih
SciTegic.value.DoubleValue
0.007

@<SCITEGIC>MOL_PROPERTY
Tether
SciTegic.value.DoubleValue
0.000

@<TRIPOS>MOLECULE
CD_guest-s19_fast_vm2_rndm.mol2 : feprocess host+ligand conformer 53
         143         148           2
SMALL
USER_CHARGES
 
@<TRIPOS>ATOM
       1    C1      16.221267   15.306577   20.346800 C.3        1 MOL1         0.2972
       2    H1      15.210569   15.243592   19.923349 H          1 MOL1         0.0751
       3    O1      16.486152   16.612416   20.897938 O.3        1 MOL1        -0.3740
       4    C2      16.441649   14.234027   21.446970 C.3        1 MOL1         0.1003
       5    H2      16.331899   13.252388   20.967961 H          1 MOL1         0.0783
       6    O2      15.474911   14.345014   22.502283 O.3        1 MOL1        -0.5519
       7    H3      15.567479   15.252645   22.888633 H          1 MOL1         0.3769
       8    C3      17.880526   14.328510   22.012392 C.3        1 MOL1         0.1053
       9    H4      17.979536   15.288624   22.538301 H          1 MOL1         0.0783
      10    O3      18.111176   13.250250   22.926004 O.3        1 MOL1        -0.5519
      11    H5      17.310208   13.218730   23.494834 H          1 MOL1         0.3769
      12    C4      18.935136   14.287026   20.877291 C.3        1 MOL1         0.1018
      13    H6      18.987410   13.259086   20.495504 H          1 MOL1         0.0783
      14    C5      18.586464   15.261737   19.715848 C.3        1 MOL1         0.1043
      15    H7      18.710049   16.283585   20.090693 H          1 MOL1         0.0783
      16    O4      17.206108   15.063567   19.319067 O.3        1 MOL1        -0.3740
      17    C6      19.474538   15.139107   18.451454 C.3        1 MOL1         0.0138
      18    H8      20.345132   15.794304   18.572669 H          1 MOL1         0.0794
      19    H9      18.909762   15.522176   17.591078 H          1 MOL1         0.0794
      20    O5      19.914072   13.801385   18.193252 O.3        1 MOL1        -0.5486
      21    H10     20.733077   13.669543   18.723076 H          1 MOL1         0.3769
      22    C7      14.841984   20.232762   21.946078 C.3        1 MOL1         0.2972
      23    H11     14.208158   21.084621   22.224941 H          1 MOL1         0.0751
      24    O6      16.200833   20.639236   21.697696 O.3        1 MOL1        -0.3740
      25    C8      14.847791   19.186436   23.084835 C.3        1 MOL1         0.1003
      26    H12     13.817247   18.829619   23.210592 H          1 MOL1         0.0783
      27    O7      15.298448   19.775812   24.315237 O.3        1 MOL1        -0.5519
      28    H13     15.727368   20.635788   24.082018 H          1 MOL1         0.3769
      29    C9      15.731461   17.975498   22.709505 C.3        1 MOL1         0.1053
      30    H14     16.773632   18.314982   22.665380 H          1 MOL1         0.0783
      31    O8      15.597660   16.970357   23.718970 O.3        1 MOL1        -0.5519
      32    H15     15.692033   17.457880   24.568210 H          1 MOL1         0.3769
      33    C10     15.355861   17.398404   21.320793 C.3        1 MOL1         0.1018
      34    H16     14.444953   16.793658   21.422790 H          1 MOL1         0.0783
      35    C11     15.154100   18.501664   20.240843 C.3        1 MOL1         0.1043
      36    H17     16.145454   18.888746   19.975555 H          1 MOL1         0.0783
      37    O9      14.345751   19.594070   20.751461 O.3        1 MOL1        -0.3740
      38    C12     14.507076   17.980067   18.935846 C.3        1 MOL1         0.0138
      39    H18     15.237207   17.346530   18.414153 H          1 MOL1         0.0794
      40    H19     14.294046   18.837133   18.282803 H          1 MOL1         0.0794
      41    O10     13.309391   17.234859   19.187861 O.3        1 MOL1        -0.5486
      42    H20     12.911728   17.006880   18.319249 H          1 MOL1         0.3769
      43    C13     18.467317   24.115060   21.252687 C.3        1 MOL1         0.2972
      44    H21     18.791046   25.145174   21.056441 H          1 MOL1         0.0751
      45    O11     19.584810   23.260896   21.557501 O.3        1 MOL1        -0.3740
      46    C14     17.529852   24.083934   22.486391 C.3        1 MOL1         0.1003
      47    H22     16.667776   24.727000   22.266534 H          1 MOL1         0.0783
      48    O12     18.217205   24.586296   23.643235 O.3        1 MOL1        -0.5519
      49    H23     19.165404   24.328397   23.541964 H          1 MOL1         0.3769
      50    C15     17.006676   22.650775   22.750836 C.3        1 MOL1         0.1053
      51    H24     17.854574   22.024556   23.057418 H          1 MOL1         0.0783
      52    O13     16.028451   22.681694   23.794801 O.3        1 MOL1        -0.5519
      53    H25     16.416051   23.260450   24.489178 H          1 MOL1         0.3769
      54    C16     16.397815   22.044088   21.464186 C.3        1 MOL1         0.1018
      55    H26     15.455583   22.560713   21.238245 H          1 MOL1         0.0783
      56    C17     17.353137   22.181812   20.249912 C.3        1 MOL1         0.1043
      57    H27     18.237660   21.564609   20.442955 H          1 MOL1         0.0783
      58    O14     17.759368   23.568175   20.115600 O.3        1 MOL1        -0.3740
      59    C18     16.752425   21.691928   18.905807 C.3        1 MOL1         0.0138
      60    H28     16.986941   20.625766   18.792164 H          1 MOL1         0.0794
      61    H29     17.255150   22.217076   18.082817 H          1 MOL1         0.0794
      62    O15     15.334590   21.879905   18.815323 O.3        1 MOL1        -0.5486
      63    H30     14.914918   21.235288   19.431016 H          1 MOL1         0.3769
      64    C19     23.627219   22.642380   20.772704 C.3        1 MOL1         0.2972
      65    H31     24.668002   22.716462   20.432063 H          1 MOL1         0.0751
      66    O16     23.338045   21.342244   21.321766 O.3        1 MOL1        -0.3740
      67    C20     23.310488   23.715726   21.847223 C.3        1 MOL1         0.1003
      68    H32     23.468348   24.698082   21.383626 H          1 MOL1         0.0783
      69    O17     24.178089   23.591195   22.984896 O.3        1 MOL1        -0.5519
      70    H33     24.093997   22.662585   23.321764 H          1 MOL1         0.3769
      71    C21     21.826313   23.626538   22.280463 C.3        1 MOL1         0.1053
      72    H34     21.684547   22.669463   22.798893 H          1 MOL1         0.0783
      73    O18     21.511466   24.708477   23.164073 O.3        1 MOL1        -0.5519
      74    H35     22.213295   24.693861   23.851684 H          1 MOL1         0.3769
      75    C22     20.875450   23.656968   21.056800 C.3        1 MOL1         0.1018
      76    H36     20.865876   24.677416   20.652251 H          1 MOL1         0.0783
      77    C23     21.319984   22.654511   19.951546 C.3        1 MOL1         0.1043
      78    H37     21.173456   21.635850   20.333013 H          1 MOL1         0.0783
      79    O19     22.725971   22.859294   19.665711 O.3        1 MOL1        -0.3740
      80    C24     20.543585   22.750184   18.613068 C.3        1 MOL1         0.0138
      81    H38     19.673274   22.086250   18.665306 H          1 MOL1         0.0794
      82    H39     21.185393   22.363326   17.810322 H          1 MOL1         0.0794
      83    O20     20.113762   24.078992   18.298534 O.3        1 MOL1        -0.5486
      84    H40     19.268173   24.221288   18.782525 H          1 MOL1         0.3769
      85    C25     24.959726   17.677384   22.229783 C.3        1 MOL1         0.2972
      86    H41     25.587083   16.810862   22.475654 H          1 MOL1         0.0751
      87    O21     23.594285   17.291653   21.973241 O.3        1 MOL1        -0.3740
      88    C26     24.968958   18.680625   23.406833 C.3        1 MOL1         0.1003
      89    H42     25.999053   19.036995   23.535369 H          1 MOL1         0.0783
      90    O22     24.543554   18.025750   24.611285 O.3        1 MOL1        -0.5519
      91    H43     23.940877   17.290711   24.344314 H          1 MOL1         0.3769
      92    C27     24.079822   19.903919   23.078752 C.3        1 MOL1         0.1053
      93    H44     23.042057   19.560037   23.010808 H          1 MOL1         0.0783
      94    O23     24.193430   20.891859   24.109234 O.3        1 MOL1        -0.5519
      95    H45     23.690257   20.527604   24.886415 H          1 MOL1         0.3769
      96    C28     24.460601   20.529383   21.712941 C.3        1 MOL1         0.1018
      97    H46     25.376006   21.122115   21.841675 H          1 MOL1         0.0783
      98    C29     24.654886   19.468925   20.589973 C.3        1 MOL1         0.1043
      99    H47     23.660087   19.099678   20.311425 H          1 MOL1         0.0783
     100    O24     25.457575   18.353586   21.057237 O.3        1 MOL1        -0.3740
     101    C30     25.305144   20.034917   19.305100 C.3        1 MOL1         0.0138
     102    H48     24.578663   20.690565   18.806191 H          1 MOL1         0.0794
     103    H49     25.514226   19.201161   18.621350 H          1 MOL1         0.0794
     104    O25     26.506677   20.764041   19.584484 O.3        1 MOL1        -0.5486
     105    H50     26.905122   21.022729   18.724975 H          1 MOL1         0.3769
     106    C31     21.316292   13.857661   21.261733 C.3        1 MOL1         0.2972
     107    H51     21.012903   12.831429   21.018365 H          1 MOL1         0.0751
     108    O26     20.174146   14.707681   21.479423 O.3        1 MOL1        -0.3740
     109    C32     22.139958   13.860650   22.573724 C.3        1 MOL1         0.1003
     110    H52     23.012625   13.212425   22.420845 H          1 MOL1         0.0783
     111    O27     21.347757   13.346671   23.656311 O.3        1 MOL1        -0.5519
     112    H53     20.415322   13.618097   23.474798 H          1 MOL1         0.3769
     113    C33     22.650259   15.283790   22.905409 C.3        1 MOL1         0.1053
     114    H54     21.784020   15.916629   23.143930 H          1 MOL1         0.0783
     115    O28     23.531819   15.222376   24.030437 O.3        1 MOL1        -0.5519
     116    H55     23.072018   14.649919   24.684359 H          1 MOL1         0.3769
     117    C34     23.379594   15.898771   21.687268 C.3        1 MOL1         0.1018
     118    H56     24.323283   15.359910   21.529664 H          1 MOL1         0.0783
     119    C35     22.521223   15.802411   20.397705 C.3        1 MOL1         0.1043
     120    H57     21.626150   16.420791   20.534183 H          1 MOL1         0.0783
     121    O29     22.120611   14.422284   20.200538 O.3        1 MOL1        -0.3740
     122    C36     23.228369   16.312280   19.114470 C.3        1 MOL1         0.0138
     123    H58     23.021651   17.384839   19.009014 H          1 MOL1         0.0794
     124    H59     22.778964   15.815701   18.244337 H          1 MOL1         0.0794
     125    O30     24.644939   16.097530   19.123634 O.3        1 MOL1        -0.5486
     126    H60     25.033239   16.748169   19.754027 H          1 MOL1         0.3769
     127    C1      21.345426   21.112343   25.724302 C.2        1 MOL1         0.6173
     128    O1      22.151404   20.243601   26.002320 O.co2      1 MOL1        -0.6755
     129    O2      21.234655   22.143028   26.358672 O.co2      1 MOL1        -0.6755
     130    C2      20.501092   20.963478   24.508925 C.2        1 MOL1        -0.1504
     131    H1      19.880355   21.820542   24.260857 H          1 MOL1         0.0814
     132    C3      20.497400   19.865643   23.719487 C.2        1 MOL1        -0.1394
     133    H2      21.106705   18.997156   23.968147 H          1 MOL1         0.0817
     134    C4      19.692076   19.770889   22.443737 C.3        1 MOL1        -0.1849
     135    H3      19.637347   20.762082   21.986877 H          1 MOL1         0.0736
     136    H4      18.663084   19.471450   22.672221 H          1 MOL1         0.0736
     137    C5      20.315533   18.790550   21.431196 C.3        1 MOL1        -0.1866
     138    H5      21.379568   19.027160   21.298374 H          1 MOL1         0.0738
     139    H6      20.258529   17.769815   21.832897 H          1 MOL1         0.0738
     140    C6      19.605721   18.858613   20.064048 C.3        1 MOL1        -0.2879
     141    H7      19.695786   19.858246   19.624897 H          1 MOL1         0.0750
     142    H8      18.538598   18.624791   20.167364 H          1 MOL1         0.0750
     143    H9      20.050152   18.144700   19.360482 H          1 MOL1         0.0750
@<TRIPOS>BOND
    1     1     2    1
    2     1     3    1
    3     1     4    1
    4     4     5    1
    5     4     6    1
    6     6     7    1
    7     4     8    1
    8     8     9    1
    9     8    10    1
   10    10    11    1
   11     8    12    1
   12    12    13    1
   13    12    14    1
   14    14    15    1
   15     1    16    1
   16    14    16    1
   17    14    17    1
   18    17    18    1
   19    17    19    1
   20    17    20    1
   21    20    21    1
   22    22    23    1
   23    22    24    1
   24    22    25    1
   25    25    26    1
   26    25    27    1
   27    27    28    1
   28    25    29    1
   29    29    30    1
   30    29    31    1
   31    31    32    1
   32     3    33    1
   33    29    33    1
   34    33    34    1
   35    33    35    1
   36    35    36    1
   37    22    37    1
   38    35    37    1
   39    35    38    1
   40    38    39    1
   41    38    40    1
   42    38    41    1
   43    41    42    1
   44    43    44    1
   45    43    45    1
   46    43    46    1
   47    46    47    1
   48    46    48    1
   49    48    49    1
   50    46    50    1
   51    50    51    1
   52    50    52    1
   53    52    53    1
   54    24    54    1
   55    50    54    1
   56    54    55    1
   57    54    56    1
   58    56    57    1
   59    43    58    1
   60    56    58    1
   61    56    59    1
   62    59    60    1
   63    59    61    1
   64    59    62    1
   65    62    63    1
   66    64    65    1
   67    64    66    1
   68    64    67    1
   69    67    68    1
   70    67    69    1
   71    69    70    1
   72    67    71    1
   73    71    72    1
   74    71    73    1
   75    73    74    1
   76    45    75    1
   77    71    75    1
   78    75    76    1
   79    75    77    1
   80    77    78    1
   81    64    79    1
   82    77    79    1
   83    77    80    1
   84    80    81    1
   85    80    82    1
   86    80    83    1
   87    83    84    1
   88    85    86    1
   89    85    87    1
   90    85    88    1
   91    88    89    1
   92    88    90    1
   93    90    91    1
   94    88    92    1
   95    92    93    1
   96    92    94    1
   97    94    95    1
   98    66    96    1
   99    92    96    1
  100    96    97    1
  101    96    98    1
  102    98    99    1
  103    85   100    1
  104    98   100    1
  105    98   101    1
  106   101   102    1
  107   101   103    1
  108   101   104    1
  109   104   105    1
  110   106   107    1
  111    12   108    1
  112   106   108    1
  113   106   109    1
  114   109   110    1
  115   109   111    1
  116   111   112    1
  117   109   113    1
  118   113   114    1
  119   113   115    1
  120   115   116    1
  121    87   117    1
  122   113   117    1
  123   117   118    1
  124   117   119    1
  125   119   120    1
  126   106   121    1
  127   119   121    1
  128   119   122    1
  129   122   123    1
  130   122   124    1
  131   122   125    1
  132   125   126    1
  133   127   128    1
  134   127   129    2
  135   127   130    1
  136   130   131    1
  137   130   132    2
  138   132   133    1
  139   132   134    1
  140   134   135    1
  141   134   136    1
  142   134   137    1
  143   137   138    1
  144   137   139    1
  145   137   140    1
  146   140   141    1
  147   140   142    1
  148   140   143    1
@<TRIPOS>SUBSTRUCTURE
       1 MOL1            1 RESIDUE      1      MOL     
       2 MOL1          143 RESIDUE      1      MOL     
@<SCITEGIC>MOL_PROPERTY
feprocess Rank
SciTegic.value.IntegerValue
53

@<SCITEGIC>MOL_PROPERTY
Conf_Id
SciTegic.value.IntegerValue
770

@<SCITEGIC>MOL_PROPERTY
Probability
SciTegic.value.DoubleValue
0.02

@<SCITEGIC>MOL_PROPERTY
G
SciTegic.value.DoubleValue
499.684

@<SCITEGIC>MOL_PROPERTY
E
SciTegic.value.DoubleValue
318.241

@<SCITEGIC>MOL_PROPERTY
-TS
SciTegic.value.DoubleValue
181.443

@<SCITEGIC>MOL_PROPERTY
U+W
SciTegic.value.DoubleValue
192.153

@<SCITEGIC>MOL_PROPERTY
U
SciTegic.value.DoubleValue
276.757

@<SCITEGIC>MOL_PROPERTY
W
SciTegic.value.DoubleValue
-84.604

@<SCITEGIC>MOL_PROPERTY
W(PB)
SciTegic.value.DoubleValue
-90.649

@<SCITEGIC>MOL_PROPERTY
W(SA)
SciTegic.value.DoubleValue
6.045

@<SCITEGIC>MOL_PROPERTY
Valence
SciTegic.value.DoubleValue
150.847

@<SCITEGIC>MOL_PROPERTY
Coulomb
SciTegic.value.DoubleValue
152.002

@<SCITEGIC>MOL_PROPERTY
VdW
SciTegic.value.DoubleValue
-26.093

@<SCITEGIC>MOL_PROPERTY
VdW6
SciTegic.value.DoubleValue
-179.343

@<SCITEGIC>MOL_PROPERTY
VdW12
SciTegic.value.DoubleValue
153.250

@<SCITEGIC>MOL_PROPERTY
Bond
SciTegic.value.DoubleValue
4.671

@<SCITEGIC>MOL_PROPERTY
Angle
SciTegic.value.DoubleValue
13.597

@<SCITEGIC>MOL_PROPERTY
Pdih
SciTegic.value.DoubleValue
132.567

@<SCITEGIC>MOL_PROPERTY
Idih
SciTegic.value.DoubleValue
0.012

@<SCITEGIC>MOL_PROPERTY
Tether
SciTegic.value.DoubleValue
0.000

@<TRIPOS>MOLECULE
CD_guest-s19_fast_vm2_rndm.mol2 : feprocess host+ligand conformer 54
         143         148           2
SMALL
USER_CHARGES
 
@<TRIPOS>ATOM
       1    C1      16.326712   15.317862   22.041892 C.3        1 MOL1         0.2972
       2    H1      15.283313   15.147260   22.337342 H          1 MOL1         0.0751
       3    O1      16.567096   16.695181   21.709688 O.3        1 MOL1        -0.3740
       4    C2      17.277422   14.931679   23.201107 C.3        1 MOL1         0.1003
       5    H2      17.133983   13.862226   23.403022 H          1 MOL1         0.0783
       6    O2      16.964695   15.682657   24.385494 O.3        1 MOL1        -0.5519
       7    H3      16.397124   16.440795   24.102836 H          1 MOL1         0.3769
       8    C3      18.754670   15.148085   22.797362 C.3        1 MOL1         0.1053
       9    H4      18.921581   16.226440   22.673601 H          1 MOL1         0.0783
      10    O3      19.601076   14.642508   23.835196 O.3        1 MOL1        -0.5519
      11    H5      19.235035   15.026080   24.663007 H          1 MOL1         0.3769
      12    C4      19.079091   14.447303   21.453759 C.3        1 MOL1         0.1018
      13    H6      19.149825   13.365915   21.630855 H          1 MOL1         0.0783
      14    C5      18.009680   14.733486   20.359773 C.3        1 MOL1         0.1043
      15    H7      18.120384   15.781694   20.054310 H          1 MOL1         0.0783
      16    O4      16.671259   14.527677   20.885047 O.3        1 MOL1        -0.3740
      17    C6      18.168928   13.867517   19.087269 C.3        1 MOL1         0.0138
      18    H8      19.064261   14.202806   18.546529 H          1 MOL1         0.0794
      19    H9      17.306526   14.047130   18.431235 H          1 MOL1         0.0794
      20    O5      18.279568   12.472119   19.393919 O.3        1 MOL1        -0.5486
      21    H10     18.285659   11.979563   18.544319 H          1 MOL1         0.3769
      22    C7      14.620427   20.300296   21.082814 C.3        1 MOL1         0.2972
      23    H11     13.898369   21.094900   20.855497 H          1 MOL1         0.0751
      24    O6      15.931729   20.833868   21.349451 O.3        1 MOL1        -0.3740
      25    C8      14.181131   19.537241   22.356976 C.3        1 MOL1         0.1003
      26    H12     13.197414   19.091724   22.159764 H          1 MOL1         0.0783
      27    O7      14.083565   20.443929   23.466762 O.3        1 MOL1        -0.5519
      28    H13     14.792922   21.119588   23.339422 H          1 MOL1         0.3769
      29    C9      15.174896   18.395315   22.679371 C.3        1 MOL1         0.1053
      30    H14     16.134742   18.848149   22.962830 H          1 MOL1         0.0783
      31    O8      14.674650   17.612345   23.767623 O.3        1 MOL1        -0.5519
      32    H15     14.361921   18.267885   24.430675 H          1 MOL1         0.3769
      33    C10     15.407490   17.498293   21.438748 C.3        1 MOL1         0.1018
      34    H16     14.511106   16.887950   21.267346 H          1 MOL1         0.0783
      35    C11     15.718662   18.323684   20.159852 C.3        1 MOL1         0.1043
      36    H17     16.697654   18.799367   20.291893 H          1 MOL1         0.0783
      37    O9      14.714169   19.356312   19.991398 O.3        1 MOL1        -0.3740
      38    C12     15.810615   17.479763   18.860864 C.3        1 MOL1         0.0138
      39    H18     16.852280   17.159146   18.731546 H          1 MOL1         0.0794
      40    H19     15.567527   18.123191   18.004824 H          1 MOL1         0.0794
      41    O10     14.957869   16.328246   18.868435 O.3        1 MOL1        -0.5486
      42    H20     15.349757   15.681130   19.499352 H          1 MOL1         0.3769
      43    C13     18.551822   23.918424   20.466844 C.3        1 MOL1         0.2972
      44    H21     19.053503   24.825912   20.107096 H          1 MOL1         0.0751
      45    O11     19.494042   22.980183   21.029708 O.3        1 MOL1        -0.3740
      46    C14     17.465638   24.257046   21.522605 C.3        1 MOL1         0.1003
      47    H22     16.714936   24.883930   21.024028 H          1 MOL1         0.0783
      48    O12     18.007233   24.981743   22.636880 O.3        1 MOL1        -0.5519
      49    H23     18.683368   24.395512   23.062099 H          1 MOL1         0.3769
      50    C15     16.762455   22.964476   22.002679 C.3        1 MOL1         0.1053
      51    H24     17.499165   22.357006   22.546923 H          1 MOL1         0.0783
      52    O13     15.676689   23.300752   22.873789 O.3        1 MOL1        -0.5519
      53    H25     16.039288   23.976281   23.488728 H          1 MOL1         0.3769
      54    C16     16.234761   22.131434   20.806667 C.3        1 MOL1         0.1018
      55    H26     15.342927   22.632088   20.407948 H          1 MOL1         0.0783
      56    C17     17.297443   21.967148   19.678848 C.3        1 MOL1         0.1043
      57    H27     18.087561   21.301749   20.044749 H          1 MOL1         0.0783
      58    O14     17.877969   23.259557   19.371631 O.3        1 MOL1        -0.3740
      59    C18     16.775073   21.341975   18.359500 C.3        1 MOL1         0.0138
      60    H28     16.892048   20.253250   18.420146 H          1 MOL1         0.0794
      61    H29     17.416550   21.681593   17.535368 H          1 MOL1         0.0794
      62    O15     15.407895   21.661051   18.079133 O.3        1 MOL1        -0.5486
      63    H30     14.860999   21.009995   18.574988 H          1 MOL1         0.3769
      64    C19     23.387916   22.586414   22.401804 C.3        1 MOL1         0.2972
      65    H31     24.407057   22.743592   22.778702 H          1 MOL1         0.0751
      66    O16     23.154307   21.203389   22.080021 O.3        1 MOL1        -0.3740
      67    C20     22.359167   23.012745   23.475653 C.3        1 MOL1         0.1003
      68    H32     22.509817   24.082190   23.672285 H          1 MOL1         0.0783
      69    O17     22.566544   22.275909   24.689811 O.3        1 MOL1        -0.5519
      70    H33     23.013525   21.434265   24.435070 H          1 MOL1         0.3769
      71    C21     20.913422   22.820635   22.962324 C.3        1 MOL1         0.1053
      72    H34     20.735492   21.745872   22.829762 H          1 MOL1         0.0783
      73    O18     20.003109   23.344247   23.934103 O.3        1 MOL1        -0.5519
      74    H35     20.314680   22.973117   24.789994 H          1 MOL1         0.3769
      75    C22     20.706308   23.519583   21.594482 C.3        1 MOL1         0.1018
      76    H36     20.640280   24.603788   21.756030 H          1 MOL1         0.0783
      77    C23     21.849345   23.196889   20.590796 C.3        1 MOL1         0.1043
      78    H37     21.730017   22.149333   20.289654 H          1 MOL1         0.0783
      79    O19     23.151892   23.366830   21.210452 O.3        1 MOL1        -0.3740
      80    C24     21.804965   24.053988   19.303174 C.3        1 MOL1         0.0138
      81    H38     20.941019   23.737450   18.703192 H          1 MOL1         0.0794
      82    H39     22.706260   23.846092   18.710869 H          1 MOL1         0.0794
      83    O20     21.709473   25.454393   19.591401 O.3        1 MOL1        -0.5486
      84    H40     21.772260   25.939031   18.739534 H          1 MOL1         0.3769
      85    C25     25.224344   17.650887   21.396542 C.3        1 MOL1         0.2972
      86    H41     25.981525   16.898450   21.142467 H          1 MOL1         0.0751
      87    O21     23.958753   17.029394   21.718302 O.3        1 MOL1        -0.3740
      88    C26     25.702899   18.478803   22.617131 C.3        1 MOL1         0.1003
      89    H42     26.595259   19.030775   22.294975 H          1 MOL1         0.0783
      90    O22     26.081971   17.628761   23.711897 O.3        1 MOL1        -0.5519
      91    H43     25.263655   17.290701   24.158462 H          1 MOL1         0.3769
      92    C27     24.623213   19.524795   22.996870 C.3        1 MOL1         0.1053
      93    H44     23.695744   18.997106   23.244311 H          1 MOL1         0.0783
      94    O23     25.037538   20.313307   24.117560 O.3        1 MOL1        -0.5519
      95    H45     24.947549   19.707772   24.900289 H          1 MOL1         0.3769
      96    C28     24.325813   20.425362   21.774560 C.3        1 MOL1         0.1018
      97    H46     25.201410   21.058529   21.579719 H          1 MOL1         0.0783
      98    C29     24.004939   19.583076   20.507708 C.3        1 MOL1         0.1043
      99    H47     23.046065   19.074824   20.674842 H          1 MOL1         0.0783
     100    O24     25.037469   18.581591   20.304653 O.3        1 MOL1        -0.3740
     101    C30     23.860034   20.419281   19.207233 C.3        1 MOL1         0.0138
     102    H48     22.804526   20.692036   19.085987 H          1 MOL1         0.0794
     103    H49     24.121967   19.786381   18.349246 H          1 MOL1         0.0794
     104    O25     24.667198   21.603567   19.197423 O.3        1 MOL1        -0.5486
     105    H50     24.289755   22.222635   19.865282 H          1 MOL1         0.3769
     106    C31     21.298550   14.071884   20.466584 C.3        1 MOL1         0.2972
     107    H51     20.811112   13.196912   20.018329 H          1 MOL1         0.0751
     108    O26     20.327893   15.002410   20.991849 O.3        1 MOL1        -0.3740
     109    C32     22.284954   13.643759   21.583619 C.3        1 MOL1         0.1003
     110    H52     23.039066   12.996144   21.118466 H          1 MOL1         0.0783
     111    O27     21.604549   12.900630   22.607887 O.3        1 MOL1        -0.5519
     112    H53     20.996316   13.533420   23.064866 H          1 MOL1         0.3769
     113    C33     23.019881   14.877695   22.170598 C.3        1 MOL1         0.1053
     114    H54     22.277446   15.473468   22.714375 H          1 MOL1         0.0783
     115    O28     24.053950   14.447323   23.064997 O.3        1 MOL1        -0.5519
     116    H55     24.100869   15.121129   23.793443 H          1 MOL1         0.3769
     117    C34     23.642259   15.777109   21.064758 C.3        1 MOL1         0.1018
     118    H56     24.545861   15.275435   20.695022 H          1 MOL1         0.0783
     119    C35     22.653872   16.025684   19.880362 C.3        1 MOL1         0.1043
     120    H57     21.859966   16.697960   20.231747 H          1 MOL1         0.0783
     121    O29     22.069859   14.765781   19.468760 O.3        1 MOL1        -0.3740
     122    C36     23.256946   16.663650   18.602456 C.3        1 MOL1         0.0138
     123    H58     23.137276   17.749962   18.662556 H          1 MOL1         0.0794
     124    H59     22.663134   16.337387   17.738031 H          1 MOL1         0.0794
     125    O30     24.634252   16.335072   18.394144 O.3        1 MOL1        -0.5486
     126    H60     25.155084   16.993887   18.907351 H          1 MOL1         0.3769
     127    C1      23.403902   17.387675   25.407111 C.2        1 MOL1         0.6173
     128    O1      23.987205   18.336395   25.898065 O.co2      1 MOL1        -0.6755
     129    O2      23.957121   16.330629   25.173219 O.co2      1 MOL1        -0.6755
     130    C2      22.052286   17.581511   24.823578 C.2        1 MOL1        -0.1504
     131    H1      21.608286   16.711545   24.349855 H          1 MOL1         0.0814
     132    C3      21.413574   18.770709   24.786517 C.2        1 MOL1        -0.1394
     133    H2      21.854088   19.658426   25.237518 H          1 MOL1         0.0817
     134    C4      20.116689   18.983698   24.043155 C.3        1 MOL1        -0.1849
     135    H3      19.712861   19.975553   24.285981 H          1 MOL1         0.0736
     136    H4      19.366723   18.247652   24.362835 H          1 MOL1         0.0736
     137    C5      20.349402   18.871809   22.520965 C.3        1 MOL1        -0.1866
     138    H5      21.175746   19.527748   22.224866 H          1 MOL1         0.0738
     139    H6      20.652882   17.848000   22.263201 H          1 MOL1         0.0738
     140    C6      19.090986   19.256056   21.728771 C.3        1 MOL1        -0.2879
     141    H7      18.795324   20.288429   21.951755 H          1 MOL1         0.0750
     142    H8      19.266363   19.167958   20.649550 H          1 MOL1         0.0750
     143    H9      18.259961   18.599062   21.999940 H          1 MOL1         0.0750
@<TRIPOS>BOND
    1     1     2    1
    2     1     3    1
    3     1     4    1
    4     4     5    1
    5     4     6    1
    6     6     7    1
    7     4     8    1
    8     8     9    1
    9     8    10    1
   10    10    11    1
   11     8    12    1
   12    12    13    1
   13    12    14    1
   14    14    15    1
   15     1    16    1
   16    14    16    1
   17    14    17    1
   18    17    18    1
   19    17    19    1
   20    17    20    1
   21    20    21    1
   22    22    23    1
   23    22    24    1
   24    22    25    1
   25    25    26    1
   26    25    27    1
   27    27    28    1
   28    25    29    1
   29    29    30    1
   30    29    31    1
   31    31    32    1
   32     3    33    1
   33    29    33    1
   34    33    34    1
   35    33    35    1
   36    35    36    1
   37    22    37    1
   38    35    37    1
   39    35    38    1
   40    38    39    1
   41    38    40    1
   42    38    41    1
   43    41    42    1
   44    43    44    1
   45    43    45    1
   46    43    46    1
   47    46    47    1
   48    46    48    1
   49    48    49    1
   50    46    50    1
   51    50    51    1
   52    50    52    1
   53    52    53    1
   54    24    54    1
   55    50    54    1
   56    54    55    1
   57    54    56    1
   58    56    57    1
   59    43    58    1
   60    56    58    1
   61    56    59    1
   62    59    60    1
   63    59    61    1
   64    59    62    1
   65    62    63    1
   66    64    65    1
   67    64    66    1
   68    64    67    1
   69    67    68    1
   70    67    69    1
   71    69    70    1
   72    67    71    1
   73    71    72    1
   74    71    73    1
   75    73    74    1
   76    45    75    1
   77    71    75    1
   78    75    76    1
   79    75    77    1
   80    77    78    1
   81    64    79    1
   82    77    79    1
   83    77    80    1
   84    80    81    1
   85    80    82    1
   86    80    83    1
   87    83    84    1
   88    85    86    1
   89    85    87    1
   90    85    88    1
   91    88    89    1
   92    88    90    1
   93    90    91    1
   94    88    92    1
   95    92    93    1
   96    92    94    1
   97    94    95    1
   98    66    96    1
   99    92    96    1
  100    96    97    1
  101    96    98    1
  102    98    99    1
  103    85   100    1
  104    98   100    1
  105    98   101    1
  106   101   102    1
  107   101   103    1
  108   101   104    1
  109   104   105    1
  110   106   107    1
  111    12   108    1
  112   106   108    1
  113   106   109    1
  114   109   110    1
  115   109   111    1
  116   111   112    1
  117   109   113    1
  118   113   114    1
  119   113   115    1
  120   115   116    1
  121    87   117    1
  122   113   117    1
  123   117   118    1
  124   117   119    1
  125   119   120    1
  126   106   121    1
  127   119   121    1
  128   119   122    1
  129   122   123    1
  130   122   124    1
  131   122   125    1
  132   125   126    1
  133   127   128    1
  134   127   129    2
  135   127   130    1
  136   130   131    1
  137   130   132    2
  138   132   133    1
  139   132   134    1
  140   134   135    1
  141   134   136    1
  142   134   137    1
  143   137   138    1
  144   137   139    1
  145   137   140    1
  146   140   141    1
  147   140   142    1
  148   140   143    1
@<TRIPOS>SUBSTRUCTURE
       1 MOL1            1 RESIDUE      1      MOL     
       2 MOL1          143 RESIDUE      1      MOL     
@<SCITEGIC>MOL_PROPERTY
feprocess Rank
SciTegic.value.IntegerValue
54

@<SCITEGIC>MOL_PROPERTY
Conf_Id
SciTegic.value.IntegerValue
62

@<SCITEGIC>MOL_PROPERTY
Probability
SciTegic.value.DoubleValue
0.02

@<SCITEGIC>MOL_PROPERTY
G
SciTegic.value.DoubleValue
499.693

@<SCITEGIC>MOL_PROPERTY
E
SciTegic.value.DoubleValue
316.065

@<SCITEGIC>MOL_PROPERTY
-TS
SciTegic.value.DoubleValue
183.628

@<SCITEGIC>MOL_PROPERTY
U+W
SciTegic.value.DoubleValue
189.977

@<SCITEGIC>MOL_PROPERTY
U
SciTegic.value.DoubleValue
266.916

@<SCITEGIC>MOL_PROPERTY
W
SciTegic.value.DoubleValue
-76.939

@<SCITEGIC>MOL_PROPERTY
W(PB)
SciTegic.value.DoubleValue
-82.929

@<SCITEGIC>MOL_PROPERTY
W(SA)
SciTegic.value.DoubleValue
5.990

@<SCITEGIC>MOL_PROPERTY
Valence
SciTegic.value.DoubleValue
151.812

@<SCITEGIC>MOL_PROPERTY
Coulomb
SciTegic.value.DoubleValue
138.795

@<SCITEGIC>MOL_PROPERTY
VdW
SciTegic.value.DoubleValue
-23.691

@<SCITEGIC>MOL_PROPERTY
VdW6
SciTegic.value.DoubleValue
-183.548

@<SCITEGIC>MOL_PROPERTY
VdW12
SciTegic.value.DoubleValue
159.857

@<SCITEGIC>MOL_PROPERTY
Bond
SciTegic.value.DoubleValue
5.161

@<SCITEGIC>MOL_PROPERTY
Angle
SciTegic.value.DoubleValue
15.073

@<SCITEGIC>MOL_PROPERTY
Pdih
SciTegic.value.DoubleValue
131.451

@<SCITEGIC>MOL_PROPERTY
Idih
SciTegic.value.DoubleValue
0.127

@<SCITEGIC>MOL_PROPERTY
Tether
SciTegic.value.DoubleValue
0.000

@<TRIPOS>MOLECULE
CD_guest-s19_fast_vm2_rndm.mol2 : feprocess host+ligand conformer 55
         143         148           2
SMALL
USER_CHARGES
 
@<TRIPOS>ATOM
       1    C1      16.415159   15.426280   20.269943 C.3        1 MOL1         0.2972
       2    H1      15.457027   15.336261   19.742059 H          1 MOL1         0.0751
       3    O1      16.525607   16.681831   20.967506 O.3        1 MOL1        -0.3740
       4    C2      16.581685   14.291026   21.309967 C.3        1 MOL1         0.1003
       5    H2      16.525842   13.340963   20.762851 H          1 MOL1         0.0783
       6    O2      15.528268   14.333424   22.286815 O.3        1 MOL1        -0.5519
       7    H3      15.457205   15.270016   22.602713 H          1 MOL1         0.3769
       8    C3      17.966590   14.356109   22.006285 C.3        1 MOL1         0.1053
       9    H4      17.978753   15.234193   22.667167 H          1 MOL1         0.0783
      10    O3      18.137123   13.161219   22.775087 O.3        1 MOL1        -0.5519
      11    H5      17.323289   13.085405   23.319670 H          1 MOL1         0.3769
      12    C4      19.129863   14.507937   20.985972 C.3        1 MOL1         0.1018
      13    H6      19.311264   13.535816   20.509789 H          1 MOL1         0.0783
      14    C5      18.821721   15.566833   19.891607 C.3        1 MOL1         0.1043
      15    H7      18.835097   16.553337   20.368515 H          1 MOL1         0.0783
      16    O4      17.509111   15.324780   19.335670 O.3        1 MOL1        -0.3740
      17    C6      19.842050   15.615260   18.725255 C.3        1 MOL1         0.0138
      18    H8      20.635503   16.324938   18.988910 H          1 MOL1         0.0794
      19    H9      19.341063   16.027074   17.839056 H          1 MOL1         0.0794
      20    O5      20.410687   14.335274   18.417203 O.3        1 MOL1        -0.5486
      21    H10     20.896856   14.028172   19.214992 H          1 MOL1         0.3769
      22    C7      14.630978   20.330468   21.430909 C.3        1 MOL1         0.2972
      23    H11     13.922121   21.166242   21.488041 H          1 MOL1         0.0751
      24    O6      15.986182   20.762136   21.648292 O.3        1 MOL1        -0.3740
      25    C8      14.293808   19.279811   22.516129 C.3        1 MOL1         0.1003
      26    H12     13.279546   18.909728   22.317667 H          1 MOL1         0.0783
      27    O7      14.335873   19.878446   23.821646 O.3        1 MOL1        -0.5519
      28    H13     15.019130   20.593586   23.788377 H          1 MOL1         0.3769
      29    C9      15.266363   18.079649   22.438870 C.3        1 MOL1         0.1053
      30    H14     16.264274   18.432014   22.731187 H          1 MOL1         0.0783
      31    O8      14.833529   17.055366   23.340913 O.3        1 MOL1        -0.5519
      32    H15     14.647823   17.523712   24.185156 H          1 MOL1         0.3769
      33    C10     15.348712   17.510532   21.001016 C.3        1 MOL1         0.1018
      34    H16     14.434734   16.934251   20.805048 H          1 MOL1         0.0783
      35    C11     15.522731   18.620494   19.924278 C.3        1 MOL1         0.1043
      36    H17     16.539805   19.022818   20.017905 H          1 MOL1         0.0783
      37    O9      14.566219   19.691096   20.139779 O.3        1 MOL1        -0.3740
      38    C12     15.362419   18.110470   18.472204 C.3        1 MOL1         0.0138
      39    H18     16.237235   17.496519   18.219205 H          1 MOL1         0.0794
      40    H19     15.365076   18.974831   17.794800 H          1 MOL1         0.0794
      41    O10     14.163429   17.344928   18.298023 O.3        1 MOL1        -0.5486
      42    H20     14.093488   17.113440   17.346352 H          1 MOL1         0.3769
      43    C13     18.433314   24.118175   21.580406 C.3        1 MOL1         0.2972
      44    H21     18.837528   25.135482   21.504741 H          1 MOL1         0.0751
      45    O11     19.473079   23.139902   21.779646 O.3        1 MOL1        -0.3740
      46    C14     17.466634   24.023492   22.787016 C.3        1 MOL1         0.1003
      47    H22     16.649180   24.735463   22.614080 H          1 MOL1         0.0783
      48    O12     18.143909   24.366749   24.006576 O.3        1 MOL1        -0.5519
      49    H23     19.078398   24.049586   23.920523 H          1 MOL1         0.3769
      50    C15     16.854038   22.606636   22.886799 C.3        1 MOL1         0.1053
      51    H24     17.657871   21.902483   23.142236 H          1 MOL1         0.0783
      52    O13     15.852062   22.585692   23.909192 O.3        1 MOL1        -0.5519
      53    H25     16.262455   23.044055   24.676098 H          1 MOL1         0.3769
      54    C16     16.237008   22.173528   21.534775 C.3        1 MOL1         0.1018
      55    H26     15.316067   22.748871   21.373320 H          1 MOL1         0.0783
      56    C17     17.209563   22.404883   20.342811 C.3        1 MOL1         0.1043
      57    H27     18.056289   21.720966   20.456417 H          1 MOL1         0.0783
      58    O14     17.704692   23.767630   20.382266 O.3        1 MOL1        -0.3740
      59    C18     16.607353   22.124419   18.942300 C.3        1 MOL1         0.0138
      60    H28     16.746567   21.060019   18.713085 H          1 MOL1         0.0794
      61    H29     17.180927   22.688982   18.195228 H          1 MOL1         0.0794
      62    O15     15.217171   22.452808   18.846958 O.3        1 MOL1        -0.5486
      63    H30     14.720266   21.677304   19.194567 H          1 MOL1         0.3769
      64    C19     23.607943   22.667572   21.388202 C.3        1 MOL1         0.2972
      65    H31     24.675485   22.863529   21.226437 H          1 MOL1         0.0751
      66    O16     23.350315   21.265744   21.597680 O.3        1 MOL1        -0.3740
      67    C20     23.124712   23.428335   22.648303 C.3        1 MOL1         0.1003
      68    H32     23.309628   24.497215   22.479955 H          1 MOL1         0.0783
      69    O17     23.856877   22.999672   23.807671 O.3        1 MOL1        -0.5519
      70    H33     24.094915   22.049602   23.664940 H          1 MOL1         0.3769
      71    C21     21.604692   23.236064   22.861815 C.3        1 MOL1         0.1053
      72    H34     21.419190   22.180262   23.104203 H          1 MOL1         0.0783
      73    O18     21.164753   24.069181   23.939806 O.3        1 MOL1        -0.5519
      74    H35     21.817073   23.916483   24.659554 H          1 MOL1         0.3769
      75    C22     20.824961   23.586178   21.572409 C.3        1 MOL1         0.1018
      76    H36     20.884088   24.671053   21.414944 H          1 MOL1         0.0783
      77    C23     21.405886   22.848817   20.334242 C.3        1 MOL1         0.1043
      78    H37     21.242232   21.775269   20.472888 H          1 MOL1         0.0783
      79    O19     22.831753   23.105585   20.249628 O.3        1 MOL1        -0.3740
      80    C24     20.747068   23.227060   18.983807 C.3        1 MOL1         0.0138
      81    H38     19.834549   22.629182   18.863223 H          1 MOL1         0.0794
      82    H39     21.427261   22.940532   18.170766 H          1 MOL1         0.0794
      83    O20     20.420925   24.617664   18.886567 O.3        1 MOL1        -0.5486
      84    H40     19.518641   24.722881   19.262288 H          1 MOL1         0.3769
      85    C25     25.029354   17.500480   20.965616 C.3        1 MOL1         0.2972
      86    H41     25.669074   16.654294   20.683691 H          1 MOL1         0.0751
      87    O21     23.717670   17.064543   21.370945 O.3        1 MOL1        -0.3740
      88    C26     25.656210   18.326250   22.121623 C.3        1 MOL1         0.1003
      89    H42     26.610845   18.723957   21.753425 H          1 MOL1         0.0783
      90    O22     25.908611   17.515126   23.279086 O.3        1 MOL1        -0.5519
      91    H43     25.044192   17.117028   23.554258 H          1 MOL1         0.3769
      92    C27     24.748987   19.529721   22.484267 C.3        1 MOL1         0.1053
      93    H44     23.810466   19.143288   22.906978 H          1 MOL1         0.0783
      94    O23     25.411102   20.357216   23.446763 O.3        1 MOL1        -0.5519
      95    H45     25.763677   19.735347   24.121478 H          1 MOL1         0.3769
      96    C28     24.408983   20.363837   21.223920 C.3        1 MOL1         0.1018
      97    H46     25.316406   20.897166   20.911891 H          1 MOL1         0.0783
      98    C29     23.910656   19.474140   20.051056 C.3        1 MOL1         0.1043
      99    H47     22.943336   19.045239   20.330981 H          1 MOL1         0.0783
     100    O24     24.857304   18.395502   19.841830 O.3        1 MOL1        -0.3740
     101    C30     23.683822   20.221389   18.712361 C.3        1 MOL1         0.0138
     102    H48     22.665983   20.632958   18.715881 H          1 MOL1         0.0794
     103    H49     23.730039   19.491741   17.893063 H          1 MOL1         0.0794
     104    O25     24.623436   21.277976   18.486404 O.3        1 MOL1        -0.5486
     105    H50     24.267290   22.073022   18.944539 H          1 MOL1         0.3769
     106    C31     21.209907   13.965115   22.163053 C.3        1 MOL1         0.2972
     107    H51     20.683821   13.032593   22.403381 H          1 MOL1         0.0751
     108    O26     20.293779   14.979420   21.695951 O.3        1 MOL1        -0.3740
     109    C32     21.952589   14.485998   23.418341 C.3        1 MOL1         0.1003
     110    H52     22.723169   13.747592   23.674696 H          1 MOL1         0.0783
     111    O27     21.035465   14.601511   24.518812 O.3        1 MOL1        -0.5519
     112    H53     21.230819   15.439867   25.008295 H          1 MOL1         0.3769
     113    C33     22.667508   15.822907   23.101412 C.3        1 MOL1         0.1053
     114    H54     21.902252   16.576433   22.884802 H          1 MOL1         0.0783
     115    O28     23.463937   16.247105   24.216522 O.3        1 MOL1        -0.5519
     116    H55     22.833627   16.564854   24.913973 H          1 MOL1         0.3769
     117    C34     23.564882   15.712520   21.842361 C.3        1 MOL1         0.1018
     118    H56     24.523349   15.256453   22.123632 H          1 MOL1         0.0783
     119    C35     22.903954   14.927381   20.672406 C.3        1 MOL1         0.1043
     120    H57     22.179507   15.604478   20.210488 H          1 MOL1         0.0783
     121    O29     22.200073   13.745291   21.135108 O.3        1 MOL1        -0.3740
     122    C36     23.899903   14.509272   19.564663 C.3        1 MOL1         0.0138
     123    H58     24.224766   15.411471   19.028944 H          1 MOL1         0.0794
     124    H59     23.373945   13.873109   18.840111 H          1 MOL1         0.0794
     125    O30     25.039054   13.822146   20.096256 O.3        1 MOL1        -0.5486
     126    H60     25.585401   13.519077   19.338353 H          1 MOL1         0.3769
     127    C1      20.874494   18.169660   25.339955 C.2        1 MOL1         0.6173
     128    O1      21.126413   19.236416   25.866181 O.co2      1 MOL1        -0.6755
     129    O2      21.273349   17.103221   25.772014 O.co2      1 MOL1        -0.6755
     130    C2      20.136578   18.140401   24.048593 C.2        1 MOL1        -0.1504
     131    H1      19.920020   17.154777   23.643910 H          1 MOL1         0.0814
     132    C3      19.785277   19.245403   23.356500 C.2        1 MOL1        -0.1394
     133    H2      20.010133   20.240550   23.738907 H          1 MOL1         0.0817
     134    C4      19.140560   19.198006   21.990954 C.3        1 MOL1        -0.1849
     135    H3      18.597561   20.131556   21.822193 H          1 MOL1         0.0736
     136    H4      18.406443   18.385532   21.939425 H          1 MOL1         0.0736
     137    C5      20.210647   19.006342   20.899499 C.3        1 MOL1        -0.1866
     138    H5      21.022349   19.718267   21.081202 H          1 MOL1         0.0738
     139    H6      20.650564   18.003911   20.992315 H          1 MOL1         0.0738
     140    C6      19.656104   19.211528   19.474378 C.3        1 MOL1        -0.2879
     141    H7      19.325715   20.245384   19.327555 H          1 MOL1         0.0750
     142    H8      20.429665   18.997618   18.726102 H          1 MOL1         0.0750
     143    H9      18.802360   18.551622   19.279738 H          1 MOL1         0.0750
@<TRIPOS>BOND
    1     1     2    1
    2     1     3    1
    3     1     4    1
    4     4     5    1
    5     4     6    1
    6     6     7    1
    7     4     8    1
    8     8     9    1
    9     8    10    1
   10    10    11    1
   11     8    12    1
   12    12    13    1
   13    12    14    1
   14    14    15    1
   15     1    16    1
   16    14    16    1
   17    14    17    1
   18    17    18    1
   19    17    19    1
   20    17    20    1
   21    20    21    1
   22    22    23    1
   23    22    24    1
   24    22    25    1
   25    25    26    1
   26    25    27    1
   27    27    28    1
   28    25    29    1
   29    29    30    1
   30    29    31    1
   31    31    32    1
   32     3    33    1
   33    29    33    1
   34    33    34    1
   35    33    35    1
   36    35    36    1
   37    22    37    1
   38    35    37    1
   39    35    38    1
   40    38    39    1
   41    38    40    1
   42    38    41    1
   43    41    42    1
   44    43    44    1
   45    43    45    1
   46    43    46    1
   47    46    47    1
   48    46    48    1
   49    48    49    1
   50    46    50    1
   51    50    51    1
   52    50    52    1
   53    52    53    1
   54    24    54    1
   55    50    54    1
   56    54    55    1
   57    54    56    1
   58    56    57    1
   59    43    58    1
   60    56    58    1
   61    56    59    1
   62    59    60    1
   63    59    61    1
   64    59    62    1
   65    62    63    1
   66    64    65    1
   67    64    66    1
   68    64    67    1
   69    67    68    1
   70    67    69    1
   71    69    70    1
   72    67    71    1
   73    71    72    1
   74    71    73    1
   75    73    74    1
   76    45    75    1
   77    71    75    1
   78    75    76    1
   79    75    77    1
   80    77    78    1
   81    64    79    1
   82    77    79    1
   83    77    80    1
   84    80    81    1
   85    80    82    1
   86    80    83    1
   87    83    84    1
   88    85    86    1
   89    85    87    1
   90    85    88    1
   91    88    89    1
   92    88    90    1
   93    90    91    1
   94    88    92    1
   95    92    93    1
   96    92    94    1
   97    94    95    1
   98    66    96    1
   99    92    96    1
  100    96    97    1
  101    96    98    1
  102    98    99    1
  103    85   100    1
  104    98   100    1
  105    98   101    1
  106   101   102    1
  107   101   103    1
  108   101   104    1
  109   104   105    1
  110   106   107    1
  111    12   108    1
  112   106   108    1
  113   106   109    1
  114   109   110    1
  115   109   111    1
  116   111   112    1
  117   109   113    1
  118   113   114    1
  119   113   115    1
  120   115   116    1
  121    87   117    1
  122   113   117    1
  123   117   118    1
  124   117   119    1
  125   119   120    1
  126   106   121    1
  127   119   121    1
  128   119   122    1
  129   122   123    1
  130   122   124    1
  131   122   125    1
  132   125   126    1
  133   127   128    1
  134   127   129    2
  135   127   130    1
  136   130   131    1
  137   130   132    2
  138   132   133    1
  139   132   134    1
  140   134   135    1
  141   134   136    1
  142   134   137    1
  143   137   138    1
  144   137   139    1
  145   137   140    1
  146   140   141    1
  147   140   142    1
  148   140   143    1
@<TRIPOS>SUBSTRUCTURE
       1 MOL1            1 RESIDUE      1      MOL     
       2 MOL1          143 RESIDUE      1      MOL     
@<SCITEGIC>MOL_PROPERTY
feprocess Rank
SciTegic.value.IntegerValue
55

@<SCITEGIC>MOL_PROPERTY
Conf_Id
SciTegic.value.IntegerValue
334

@<SCITEGIC>MOL_PROPERTY
Probability
SciTegic.value.DoubleValue
0.02

@<SCITEGIC>MOL_PROPERTY
G
SciTegic.value.DoubleValue
499.768

@<SCITEGIC>MOL_PROPERTY
E
SciTegic.value.DoubleValue
318.348

@<SCITEGIC>MOL_PROPERTY
-TS
SciTegic.value.DoubleValue
181.419

@<SCITEGIC>MOL_PROPERTY
U+W
SciTegic.value.DoubleValue
192.260

@<SCITEGIC>MOL_PROPERTY
U
SciTegic.value.DoubleValue
270.125

@<SCITEGIC>MOL_PROPERTY
W
SciTegic.value.DoubleValue
-77.864

@<SCITEGIC>MOL_PROPERTY
W(PB)
SciTegic.value.DoubleValue
-83.841

@<SCITEGIC>MOL_PROPERTY
W(SA)
SciTegic.value.DoubleValue
5.976

@<SCITEGIC>MOL_PROPERTY
Valence
SciTegic.value.DoubleValue
151.461

@<SCITEGIC>MOL_PROPERTY
Coulomb
SciTegic.value.DoubleValue
143.481

@<SCITEGIC>MOL_PROPERTY
VdW
SciTegic.value.DoubleValue
-24.817

@<SCITEGIC>MOL_PROPERTY
VdW6
SciTegic.value.DoubleValue
-179.152

@<SCITEGIC>MOL_PROPERTY
VdW12
SciTegic.value.DoubleValue
154.335

@<SCITEGIC>MOL_PROPERTY
Bond
SciTegic.value.DoubleValue
4.767

@<SCITEGIC>MOL_PROPERTY
Angle
SciTegic.value.DoubleValue
14.072

@<SCITEGIC>MOL_PROPERTY
Pdih
SciTegic.value.DoubleValue
132.592

@<SCITEGIC>MOL_PROPERTY
Idih
SciTegic.value.DoubleValue
0.031

@<SCITEGIC>MOL_PROPERTY
Tether
SciTegic.value.DoubleValue
0.000

@<TRIPOS>MOLECULE
CD_guest-s19_fast_vm2_rndm.mol2 : feprocess host+ligand conformer 56
         143         148           2
SMALL
USER_CHARGES
 
@<TRIPOS>ATOM
       1    C1      16.293289   15.075121   20.678514 C.3        1 MOL1         0.2972
       2    H1      15.232652   14.976290   20.418497 H          1 MOL1         0.0751
       3    O1      16.673265   16.464443   20.810693 O.3        1 MOL1        -0.3740
       4    C2      16.620380   14.291849   21.977245 C.3        1 MOL1         0.1003
       5    H2      16.439526   13.230070   21.764289 H          1 MOL1         0.0783
       6    O2      15.784057   14.686666   23.074099 O.3        1 MOL1        -0.5519
       7    H3      16.037465   15.616517   23.302588 H          1 MOL1         0.3769
       8    C3      18.116069   14.452955   22.335023 C.3        1 MOL1         0.1053
       9    H4      18.300396   15.509985   22.570618 H          1 MOL1         0.0783
      10    O3      18.422826   13.642502   23.473198 O.3        1 MOL1        -0.5519
      11    H5      17.669853   13.772421   24.092366 H          1 MOL1         0.3769
      12    C4      19.023635   14.057285   21.142045 C.3        1 MOL1         0.1018
      13    H6      19.067443   12.962664   21.070985 H          1 MOL1         0.0783
      14    C5      18.535949   14.637445   19.783660 C.3        1 MOL1         0.1043
      15    H7      18.785391   15.702880   19.757121 H          1 MOL1         0.0783
      16    O4      17.100543   14.489229   19.637020 O.3        1 MOL1        -0.3740
      17    C6      19.226787   13.981117   18.565233 C.3        1 MOL1         0.0138
      18    H8      20.291965   14.247920   18.585813 H          1 MOL1         0.0794
      19    H9      18.799066   14.407800   17.648183 H          1 MOL1         0.0794
      20    O5      19.083715   12.554678   18.566170 O.3        1 MOL1        -0.5486
      21    H10     19.523799   12.210628   17.758703 H          1 MOL1         0.3769
      22    C7      15.125201   20.260995   21.680373 C.3        1 MOL1         0.2972
      23    H11     14.464850   21.083291   21.983351 H          1 MOL1         0.0751
      24    O6      16.319469   20.751206   21.042623 O.3        1 MOL1        -0.3740
      25    C8      15.519945   19.402760   22.911669 C.3        1 MOL1         0.1003
      26    H12     14.586610   19.021482   23.345933 H          1 MOL1         0.0783
      27    O7      16.210163   20.179230   23.903681 O.3        1 MOL1        -0.5519
      28    H13     16.004080   21.127920   23.726168 H          1 MOL1         0.3769
      29    C9      16.382572   18.187815   22.494430 C.3        1 MOL1         0.1053
      30    H14     17.344172   18.563430   22.120732 H          1 MOL1         0.0783
      31    O8      16.593762   17.366583   23.646575 O.3        1 MOL1        -0.5519
      32    H15     16.923050   17.989753   24.334004 H          1 MOL1         0.3769
      33    C10     15.697253   17.376333   21.363322 C.3        1 MOL1         0.1018
      34    H16     14.836396   16.845135   21.788427 H          1 MOL1         0.0783
      35    C11     15.221334   18.299889   20.207621 C.3        1 MOL1         0.1043
      36    H17     16.111328   18.694115   19.699052 H          1 MOL1         0.0783
      37    O9      14.444700   19.402308   20.740914 O.3        1 MOL1        -0.3740
      38    C12     14.364027   17.573834   19.142289 C.3        1 MOL1         0.0138
      39    H18     14.988474   16.823732   18.638170 H          1 MOL1         0.0794
      40    H19     14.064821   18.306677   18.381311 H          1 MOL1         0.0794
      41    O10     13.199711   16.950566   19.701962 O.3        1 MOL1        -0.5486
      42    H20     13.490193   16.258622   20.329850 H          1 MOL1         0.3769
      43    C13     18.497091   24.252664   20.746333 C.3        1 MOL1         0.2972
      44    H21     18.906421   25.250334   20.545460 H          1 MOL1         0.0751
      45    O11     19.525048   23.317752   21.136632 O.3        1 MOL1        -0.3740
      46    C14     17.399895   24.299683   21.839289 C.3        1 MOL1         0.1003
      47    H22     16.567206   24.887970   21.431769 H          1 MOL1         0.0783
      48    O12     17.862566   24.935587   23.038928 O.3        1 MOL1        -0.5519
      49    H23     18.626311   24.402919   23.376815 H          1 MOL1         0.3769
      50    C15     16.870726   22.873110   22.130822 C.3        1 MOL1         0.1053
      51    H24     17.689911   22.282702   22.565815 H          1 MOL1         0.0783
      52    O13     15.790083   22.969641   23.065813 O.3        1 MOL1        -0.5519
      53    H25     16.068240   23.666887   23.702883 H          1 MOL1         0.3769
      54    C16     16.406833   22.173397   20.819621 C.3        1 MOL1         0.1018
      55    H26     15.436455   22.587672   20.518539 H          1 MOL1         0.0783
      56    C17     17.420365   22.352444   19.652323 C.3        1 MOL1         0.1043
      57    H27     18.292022   21.721383   19.859847 H          1 MOL1         0.0783
      58    O14     17.860820   23.730656   19.561105 O.3        1 MOL1        -0.3740
      59    C18     16.869163   21.905419   18.276163 C.3        1 MOL1         0.0138
      60    H28     16.793854   20.809554   18.270606 H          1 MOL1         0.0794
      61    H29     17.597785   22.183275   17.503182 H          1 MOL1         0.0794
      62    O15     15.590969   22.480238   17.977295 O.3        1 MOL1        -0.5486
      63    H30     14.923292   22.015829   18.526182 H          1 MOL1         0.3769
      64    C19     23.378529   22.667951   22.363222 C.3        1 MOL1         0.2972
      65    H31     24.417710   22.696431   22.715500 H          1 MOL1         0.0751
      66    O16     23.014893   21.350626   21.904343 O.3        1 MOL1        -0.3740
      67    C20     22.426279   23.108336   23.500784 C.3        1 MOL1         0.1003
      68    H32     22.646397   24.163109   23.710137 H          1 MOL1         0.0783
      69    O17     22.646333   22.353049   24.700430 O.3        1 MOL1        -0.5519
      70    H33     22.226790   21.458693   24.569595 H          1 MOL1         0.3769
      71    C21     20.955614   23.015247   23.036251 C.3        1 MOL1         0.1053
      72    H34     20.723113   21.961716   22.829605 H          1 MOL1         0.0783
      73    O18     20.102476   23.497833   24.077625 O.3        1 MOL1        -0.5519
      74    H35     20.351865   22.968449   24.869010 H          1 MOL1         0.3769
      75    C22     20.733677   23.826688   21.732448 C.3        1 MOL1         0.1018
      76    H36     20.658497   24.892339   21.983410 H          1 MOL1         0.0783
      77    C23     21.852135   23.590067   20.674569 C.3        1 MOL1         0.1043
      78    H37     21.664379   22.603829   20.236751 H          1 MOL1         0.0783
      79    O19     23.178942   23.587682   21.267542 O.3        1 MOL1        -0.3740
      80    C24     21.834791   24.612549   19.512443 C.3        1 MOL1         0.0138
      81    H38     20.899145   24.493214   18.949313 H          1 MOL1         0.0794
      82    H39     22.656410   24.371047   18.825026 H          1 MOL1         0.0794
      83    O20     21.965674   25.964845   19.970026 O.3        1 MOL1        -0.5486
      84    H40     21.142454   26.214409   20.437936 H          1 MOL1         0.3769
      85    C25     24.765416   17.751372   20.739308 C.3        1 MOL1         0.2972
      86    H41     25.413454   16.973893   20.315051 H          1 MOL1         0.0751
      87    O21     23.494638   17.211454   21.149446 O.3        1 MOL1        -0.3740
      88    C26     25.443134   18.442515   21.952002 C.3        1 MOL1         0.1003
      89    H42     26.376151   18.887038   21.581947 H          1 MOL1         0.0783
      90    O22     25.761089   17.503005   22.990571 O.3        1 MOL1        -0.5519
      91    H43     24.908302   17.087880   23.277823 H          1 MOL1         0.3769
      92    C27     24.565813   19.591906   22.510697 C.3        1 MOL1         0.1053
      93    H44     23.674712   19.154316   22.984180 H          1 MOL1         0.0783
      94    O23     25.334907   20.315967   23.476736 O.3        1 MOL1        -0.5519
      95    H45     25.679627   19.636950   24.096488 H          1 MOL1         0.3769
      96    C28     24.094616   20.550044   21.383595 C.3        1 MOL1         0.1018
      97    H46     24.946354   21.170575   21.076102 H          1 MOL1         0.0783
      98    C29     23.552031   19.786880   20.142415 C.3        1 MOL1         0.1043
      99    H47     22.605341   19.306784   20.418286 H          1 MOL1         0.0783
     100    O24     24.509210   18.772676   19.751675 O.3        1 MOL1        -0.3740
     101    C30     23.257514   20.680110   18.909227 C.3        1 MOL1         0.0138
     102    H48     22.212786   21.008867   18.960809 H          1 MOL1         0.0794
     103    H49     23.344278   20.065073   18.003573 H          1 MOL1         0.0794
     104    O25     24.122749   21.819843   18.813169 O.3        1 MOL1        -0.5486
     105    H50     23.943796   22.394001   19.593114 H          1 MOL1         0.3769
     106    C31     21.383301   13.728653   21.742052 C.3        1 MOL1         0.2972
     107    H51     21.016008   12.708613   21.912069 H          1 MOL1         0.0751
     108    O26     20.316760   14.636326   21.399965 O.3        1 MOL1        -0.3740
     109    C32     22.092400   14.264898   23.009986 C.3        1 MOL1         0.1003
     110    H52     22.967908   13.627741   23.190665 H          1 MOL1         0.0783
     111    O27     21.229276   14.207793   24.156283 O.3        1 MOL1        -0.5519
     112    H53     20.297320   14.213879   23.824241 H          1 MOL1         0.3769
     113    C33     22.597540   15.707987   22.778891 C.3        1 MOL1         0.1053
     114    H54     21.723158   16.360615   22.663024 H          1 MOL1         0.0783
     115    O28     23.365832   16.124330   23.912653 O.3        1 MOL1        -0.5519
     116    H55     22.797742   15.918707   24.688614 H          1 MOL1         0.3769
     117    C34     23.453079   15.812625   21.490527 C.3        1 MOL1         0.1018
     118    H56     24.452746   15.411157   21.703028 H          1 MOL1         0.0783
     119    C35     22.824025   15.064009   20.278147 C.3        1 MOL1         0.1043
     120    H57     21.970385   15.653584   19.920525 H          1 MOL1         0.0783
     121    O29     22.352934   13.750364   20.673754 O.3        1 MOL1        -0.3740
     122    C36     23.790115   14.897008   19.080922 C.3        1 MOL1         0.0138
     123    H58     23.936039   15.879409   18.611759 H          1 MOL1         0.0794
     124    H59     23.312692   14.247750   18.334815 H          1 MOL1         0.0794
     125    O30     25.056067   14.353959   19.476614 O.3        1 MOL1        -0.5486
     126    H60     25.581264   14.197590   18.661584 H          1 MOL1         0.3769
     127    C1      20.423657   19.057533   24.662997 C.2        1 MOL1         0.6173
     128    O1      20.074249   18.543910   25.708309 O.co2      1 MOL1        -0.6755
     129    O2      21.073524   20.085340   24.608010 O.co2      1 MOL1        -0.6755
     130    C2      20.038197   18.370402   23.401742 C.2        1 MOL1        -0.1504
     131    H1      19.476734   17.447181   23.519240 H          1 MOL1         0.0814
     132    C3      20.355491   18.828109   22.170065 C.2        1 MOL1        -0.1394
     133    H2      20.919845   19.750252   22.050849 H          1 MOL1         0.0817
     134    C4      19.978111   18.117652   20.890309 C.3        1 MOL1        -0.1849
     135    H3      19.237356   17.341136   21.108847 H          1 MOL1         0.0736
     136    H4      20.857480   17.610979   20.476712 H          1 MOL1         0.0736
     137    C5      19.403451   19.096429   19.849989 C.3        1 MOL1        -0.1866
     138    H5      18.504769   19.563094   20.266857 H          1 MOL1         0.0738
     139    H6      20.126058   19.900532   19.659187 H          1 MOL1         0.0738
     140    C6      19.046369   18.396524   18.524059 C.3        1 MOL1        -0.2879
     141    H7      19.921523   17.886990   18.100791 H          1 MOL1         0.0750
     142    H8      18.252849   17.654017   18.674595 H          1 MOL1         0.0750
     143    H9      18.688807   19.125988   17.786661 H          1 MOL1         0.0750
@<TRIPOS>BOND
    1     1     2    1
    2     1     3    1
    3     1     4    1
    4     4     5    1
    5     4     6    1
    6     6     7    1
    7     4     8    1
    8     8     9    1
    9     8    10    1
   10    10    11    1
   11     8    12    1
   12    12    13    1
   13    12    14    1
   14    14    15    1
   15     1    16    1
   16    14    16    1
   17    14    17    1
   18    17    18    1
   19    17    19    1
   20    17    20    1
   21    20    21    1
   22    22    23    1
   23    22    24    1
   24    22    25    1
   25    25    26    1
   26    25    27    1
   27    27    28    1
   28    25    29    1
   29    29    30    1
   30    29    31    1
   31    31    32    1
   32     3    33    1
   33    29    33    1
   34    33    34    1
   35    33    35    1
   36    35    36    1
   37    22    37    1
   38    35    37    1
   39    35    38    1
   40    38    39    1
   41    38    40    1
   42    38    41    1
   43    41    42    1
   44    43    44    1
   45    43    45    1
   46    43    46    1
   47    46    47    1
   48    46    48    1
   49    48    49    1
   50    46    50    1
   51    50    51    1
   52    50    52    1
   53    52    53    1
   54    24    54    1
   55    50    54    1
   56    54    55    1
   57    54    56    1
   58    56    57    1
   59    43    58    1
   60    56    58    1
   61    56    59    1
   62    59    60    1
   63    59    61    1
   64    59    62    1
   65    62    63    1
   66    64    65    1
   67    64    66    1
   68    64    67    1
   69    67    68    1
   70    67    69    1
   71    69    70    1
   72    67    71    1
   73    71    72    1
   74    71    73    1
   75    73    74    1
   76    45    75    1
   77    71    75    1
   78    75    76    1
   79    75    77    1
   80    77    78    1
   81    64    79    1
   82    77    79    1
   83    77    80    1
   84    80    81    1
   85    80    82    1
   86    80    83    1
   87    83    84    1
   88    85    86    1
   89    85    87    1
   90    85    88    1
   91    88    89    1
   92    88    90    1
   93    90    91    1
   94    88    92    1
   95    92    93    1
   96    92    94    1
   97    94    95    1
   98    66    96    1
   99    92    96    1
  100    96    97    1
  101    96    98    1
  102    98    99    1
  103    85   100    1
  104    98   100    1
  105    98   101    1
  106   101   102    1
  107   101   103    1
  108   101   104    1
  109   104   105    1
  110   106   107    1
  111    12   108    1
  112   106   108    1
  113   106   109    1
  114   109   110    1
  115   109   111    1
  116   111   112    1
  117   109   113    1
  118   113   114    1
  119   113   115    1
  120   115   116    1
  121    87   117    1
  122   113   117    1
  123   117   118    1
  124   117   119    1
  125   119   120    1
  126   106   121    1
  127   119   121    1
  128   119   122    1
  129   122   123    1
  130   122   124    1
  131   122   125    1
  132   125   126    1
  133   127   128    1
  134   127   129    2
  135   127   130    1
  136   130   131    1
  137   130   132    2
  138   132   133    1
  139   132   134    1
  140   134   135    1
  141   134   136    1
  142   134   137    1
  143   137   138    1
  144   137   139    1
  145   137   140    1
  146   140   141    1
  147   140   142    1
  148   140   143    1
@<TRIPOS>SUBSTRUCTURE
       1 MOL1            1 RESIDUE      1      MOL     
       2 MOL1          143 RESIDUE      1      MOL     
@<SCITEGIC>MOL_PROPERTY
feprocess Rank
SciTegic.value.IntegerValue
56

@<SCITEGIC>MOL_PROPERTY
Conf_Id
SciTegic.value.IntegerValue
757

@<SCITEGIC>MOL_PROPERTY
Probability
SciTegic.value.DoubleValue
0.02

@<SCITEGIC>MOL_PROPERTY
G
SciTegic.value.DoubleValue
499.770

@<SCITEGIC>MOL_PROPERTY
E
SciTegic.value.DoubleValue
318.433

@<SCITEGIC>MOL_PROPERTY
-TS
SciTegic.value.DoubleValue
181.336

@<SCITEGIC>MOL_PROPERTY
U+W
SciTegic.value.DoubleValue
192.345

@<SCITEGIC>MOL_PROPERTY
U
SciTegic.value.DoubleValue
273.831

@<SCITEGIC>MOL_PROPERTY
W
SciTegic.value.DoubleValue
-81.486

@<SCITEGIC>MOL_PROPERTY
W(PB)
SciTegic.value.DoubleValue
-87.523

@<SCITEGIC>MOL_PROPERTY
W(SA)
SciTegic.value.DoubleValue
6.037

@<SCITEGIC>MOL_PROPERTY
Valence
SciTegic.value.DoubleValue
146.994

@<SCITEGIC>MOL_PROPERTY
Coulomb
SciTegic.value.DoubleValue
151.129

@<SCITEGIC>MOL_PROPERTY
VdW
SciTegic.value.DoubleValue
-24.292

@<SCITEGIC>MOL_PROPERTY
VdW6
SciTegic.value.DoubleValue
-177.962

@<SCITEGIC>MOL_PROPERTY
VdW12
SciTegic.value.DoubleValue
153.670

@<SCITEGIC>MOL_PROPERTY
Bond
SciTegic.value.DoubleValue
4.831

@<SCITEGIC>MOL_PROPERTY
Angle
SciTegic.value.DoubleValue
15.060

@<SCITEGIC>MOL_PROPERTY
Pdih
SciTegic.value.DoubleValue
127.102

@<SCITEGIC>MOL_PROPERTY
Idih
SciTegic.value.DoubleValue
0.001

@<SCITEGIC>MOL_PROPERTY
Tether
SciTegic.value.DoubleValue
0.000

@<TRIPOS>MOLECULE
CD_guest-s19_fast_vm2_rndm.mol2 : feprocess host+ligand conformer 57
         143         148           2
SMALL
USER_CHARGES
 
@<TRIPOS>ATOM
       1    C1      16.238513   15.159960   21.987049 C.3        1 MOL1         0.2972
       2    H1      15.192090   14.950752   22.243048 H          1 MOL1         0.0751
       3    O1      16.484399   16.579474   21.892163 O.3        1 MOL1        -0.3740
       4    C2      17.169273   14.546786   23.061982 C.3        1 MOL1         0.1003
       5    H2      17.059513   13.456740   22.994850 H          1 MOL1         0.0783
       6    O2      16.778941   14.953504   24.383467 O.3        1 MOL1        -0.5519
       7    H3      17.342655   15.723530   24.651542 H          1 MOL1         0.3769
       8    C3      18.641626   14.891888   22.729635 C.3        1 MOL1         0.1053
       9    H4      18.743221   15.981704   22.699806 H          1 MOL1         0.0783
      10    O3      19.521102   14.361536   23.726802 O.3        1 MOL1        -0.5519
      11    H5      19.410009   14.969607   24.503749 H          1 MOL1         0.3769
      12    C4      19.002781   14.360619   21.320822 C.3        1 MOL1         0.1018
      13    H6      19.072441   13.265440   21.361249 H          1 MOL1         0.0783
      14    C5      17.949107   14.797121   20.259774 C.3        1 MOL1         0.1043
      15    H7      18.078233   15.874413   20.099236 H          1 MOL1         0.0783
      16    O4      16.591390   14.553788   20.723242 O.3        1 MOL1        -0.3740
      17    C6      18.130631   14.101509   18.889970 C.3        1 MOL1         0.0138
      18    H8      19.045714   14.488529   18.421298 H          1 MOL1         0.0794
      19    H9      17.288830   14.377790   18.240885 H          1 MOL1         0.0794
      20    O5      18.215245   12.676783   19.017879 O.3        1 MOL1        -0.5486
      21    H10     18.250610   12.297749   18.112671 H          1 MOL1         0.3769
      22    C7      14.659480   20.236979   21.160220 C.3        1 MOL1         0.2972
      23    H11     13.971507   21.057349   20.918861 H          1 MOL1         0.0751
      24    O6      16.003764   20.714075   21.375131 O.3        1 MOL1        -0.3740
      25    C8      14.206603   19.539115   22.463919 C.3        1 MOL1         0.1003
      26    H12     13.204478   19.123864   22.297513 H          1 MOL1         0.0783
      27    O7      14.151919   20.509697   23.522862 O.3        1 MOL1        -0.5519
      28    H13     14.895677   21.140383   23.369925 H          1 MOL1         0.3769
      29    C9      15.163320   18.367264   22.804732 C.3        1 MOL1         0.1053
      30    H14     16.143551   18.797593   23.040654 H          1 MOL1         0.0783
      31    O8      14.682063   17.633154   23.935561 O.3        1 MOL1        -0.5519
      32    H15     15.445826   17.608851   24.569669 H          1 MOL1         0.3769
      33    C10     15.342026   17.409976   21.596143 C.3        1 MOL1         0.1018
      34    H16     14.422060   16.822402   21.480474 H          1 MOL1         0.0783
      35    C11     15.638118   18.177968   20.274849 C.3        1 MOL1         0.1043
      36    H17     16.641525   18.606032   20.359936 H          1 MOL1         0.0783
      37    O9      14.682245   19.255131   20.101777 O.3        1 MOL1        -0.3740
      38    C12     15.633174   17.311155   18.988667 C.3        1 MOL1         0.0138
      39    H18     16.649055   16.936833   18.815274 H          1 MOL1         0.0794
      40    H19     15.387221   17.955584   18.134052 H          1 MOL1         0.0794
      41    O10     14.719732   16.210221   19.048680 O.3        1 MOL1        -0.5486
      42    H20     15.147509   15.514159   19.600415 H          1 MOL1         0.3769
      43    C13     18.588453   23.867240   20.502527 C.3        1 MOL1         0.2972
      44    H21     19.042749   24.786887   20.111832 H          1 MOL1         0.0751
      45    O11     19.563835   23.028092   21.154279 O.3        1 MOL1        -0.3740
      46    C14     17.458525   24.189065   21.517163 C.3        1 MOL1         0.1003
      47    H22     16.701370   24.778308   20.983726 H          1 MOL1         0.0783
      48    O12     17.950115   24.957085   22.626672 O.3        1 MOL1        -0.5519
      49    H23     18.720321   24.464605   23.009259 H          1 MOL1         0.3769
      50    C15     16.782713   22.886526   22.014954 C.3        1 MOL1         0.1053
      51    H24     17.519775   22.320168   22.601514 H          1 MOL1         0.0783
      52    O13     15.656889   23.212244   22.836570 O.3        1 MOL1        -0.5519
      53    H25     15.973550   23.924524   23.435581 H          1 MOL1         0.3769
      54    C16     16.329290   22.003332   20.825478 C.3        1 MOL1         0.1018
      55    H26     15.466338   22.479781   20.342115 H          1 MOL1         0.0783
      56    C17     17.468451   21.812111   19.787916 C.3        1 MOL1         0.1043
      57    H27     18.258011   21.222938   20.266107 H          1 MOL1         0.0783
      58    O14     18.000610   23.108721   19.422215 O.3        1 MOL1        -0.3740
      59    C18     17.063759   21.060339   18.493668 C.3        1 MOL1         0.0138
      60    H28     17.212283   19.985750   18.654664 H          1 MOL1         0.0794
      61    H29     17.750970   21.356203   17.689868 H          1 MOL1         0.0794
      62    O15     15.709156   21.301618   18.096528 O.3        1 MOL1        -0.5486
      63    H30     15.142645   20.716144   18.649915 H          1 MOL1         0.3769
      64    C19     23.547846   22.788463   22.202345 C.3        1 MOL1         0.2972
      65    H31     24.598772   22.962801   22.466433 H          1 MOL1         0.0751
      66    O16     23.258679   21.384631   22.060027 O.3        1 MOL1        -0.3740
      67    C20     22.628862   23.357316   23.309158 C.3        1 MOL1         0.1003
      68    H32     22.810033   24.438487   23.367410 H          1 MOL1         0.0783
      69    O17     22.937356   22.754775   24.576407 O.3        1 MOL1        -0.5519
      70    H33     23.322205   21.863703   24.384942 H          1 MOL1         0.3769
      71    C21     21.139783   23.140138   22.953623 C.3        1 MOL1         0.1053
      72    H34     20.936334   22.063371   22.994285 H          1 MOL1         0.0783
      73    O18     20.322409   23.817491   23.913402 O.3        1 MOL1        -0.5519
      74    H35     20.699908   23.567252   24.786344 H          1 MOL1         0.3769
      75    C22     20.812030   23.645866   21.525565 C.3        1 MOL1         0.1018
      76    H36     20.737190   24.741160   21.552780 H          1 MOL1         0.0783
      77    C23     21.870309   23.207106   20.471609 C.3        1 MOL1         0.1043
      78    H37     21.739633   22.132237   20.297773 H          1 MOL1         0.0783
      79    O19     23.216583   23.442386   20.960307 O.3        1 MOL1        -0.3740
      80    C24     21.715477   23.912927   19.103513 C.3        1 MOL1         0.0138
      81    H38     20.810429   23.528859   18.613528 H          1 MOL1         0.0794
      82    H39     22.569832   23.640188   18.469528 H          1 MOL1         0.0794
      83    O20     21.628968   25.336977   19.237941 O.3        1 MOL1        -0.5486
      84    H40     21.612840   25.721286   18.334372 H          1 MOL1         0.3769
      85    C25     25.111145   17.691476   21.550543 C.3        1 MOL1         0.2972
      86    H41     25.836885   16.883467   21.392859 H          1 MOL1         0.0751
      87    O21     23.765242   17.184771   21.632849 O.3        1 MOL1        -0.3740
      88    C26     25.407707   18.407528   22.891482 C.3        1 MOL1         0.1003
      89    H42     26.424167   18.818083   22.833941 H          1 MOL1         0.0783
      90    O22     25.330851   17.472757   23.979494 O.3        1 MOL1        -0.5519
      91    H43     24.651253   16.801760   23.726057 H          1 MOL1         0.3769
      92    C27     24.425164   19.581860   23.116615 C.3        1 MOL1         0.1053
      93    H44     23.418201   19.166305   23.259541 H          1 MOL1         0.0783
      94    O23     24.812232   20.317457   24.281982 O.3        1 MOL1        -0.5519
      95    H45     24.993525   19.634207   24.965400 H          1 MOL1         0.3769
      96    C28     24.394792   20.519272   21.885805 C.3        1 MOL1         0.1018
      97    H46     25.340270   21.076041   21.847813 H          1 MOL1         0.0783
      98    C29     24.206822   19.737521   20.555579 C.3        1 MOL1         0.1043
      99    H47     23.202107   19.304812   20.555716 H          1 MOL1         0.0783
     100    O24     25.179708   18.663330   20.481398 O.3        1 MOL1        -0.3740
     101    C30     24.309521   20.603763   19.273084 C.3        1 MOL1         0.0138
     102    H48     23.310145   20.990254   19.035664 H          1 MOL1         0.0794
     103    H49     24.607181   19.957774   18.436424 H          1 MOL1         0.0794
     104    O25     25.224739   21.698057   19.398145 O.3        1 MOL1        -0.5486
     105    H50     24.757868   22.404979   19.901203 H          1 MOL1         0.3769
     106    C31     21.270617   14.098808   20.399307 C.3        1 MOL1         0.2972
     107    H51     20.830056   13.199922   19.949130 H          1 MOL1         0.0751
     108    O26     20.254574   14.970804   20.939951 O.3        1 MOL1        -0.3740
     109    C32     22.283897   13.728853   21.515488 C.3        1 MOL1         0.1003
     110    H52     23.093911   13.161006   21.039517 H          1 MOL1         0.0783
     111    O27     21.688342   12.911846   22.533687 O.3        1 MOL1        -0.5519
     112    H53     20.943041   13.433941   22.925999 H          1 MOL1         0.3769
     113    C33     22.900892   15.011608   22.125004 C.3        1 MOL1         0.1053
     114    H54     22.100985   15.575841   22.624548 H          1 MOL1         0.0783
     115    O28     23.912026   14.658019   23.075203 O.3        1 MOL1        -0.5519
     116    H55     23.516439   13.938327   23.615310 H          1 MOL1         0.3769
     117    C34     23.513370   15.907196   21.019014 C.3        1 MOL1         0.1018
     118    H56     24.436359   15.429527   20.665844 H          1 MOL1         0.0783
     119    C35     22.540985   16.117244   19.822115 C.3        1 MOL1         0.1043
     120    H57     21.716431   16.755274   20.161254 H          1 MOL1         0.0783
     121    O29     22.004844   14.838367   19.398991 O.3        1 MOL1        -0.3740
     122    C36     23.172972   16.806288   18.584790 C.3        1 MOL1         0.0138
     123    H58     23.112374   17.891760   18.717359 H          1 MOL1         0.0794
     124    H59     22.567063   16.561033   17.702369 H          1 MOL1         0.0794
     125    O30     24.538010   16.435023   18.363279 O.3        1 MOL1        -0.5486
     126    H60     25.085104   17.014543   18.940070 H          1 MOL1         0.3769
     127    C1      18.289025   17.723435   24.899337 C.2        1 MOL1         0.6173
     128    O1      18.856007   16.701834   25.244175 O.co2      1 MOL1        -0.6755
     129    O2      17.180856   18.017509   25.302221 O.co2      1 MOL1        -0.6755
     130    C2      18.864662   18.542509   23.798114 C.2        1 MOL1        -0.1504
     131    H1      18.281270   19.405085   23.486364 H          1 MOL1         0.0814
     132    C3      20.014393   18.231243   23.158799 C.2        1 MOL1        -0.1394
     133    H2      20.598711   17.360602   23.454676 H          1 MOL1         0.0817
     134    C4      20.544982   18.991215   21.966556 C.3        1 MOL1        -0.1849
     135    H3      21.575209   18.677230   21.782187 H          1 MOL1         0.0736
     136    H4      20.569702   20.065722   22.178731 H          1 MOL1         0.0736
     137    C5      19.689023   18.725370   20.712852 C.3        1 MOL1        -0.1866
     138    H5      19.618670   17.644465   20.537861 H          1 MOL1         0.0738
     139    H6      18.670292   19.079479   20.902446 H          1 MOL1         0.0738
     140    C6      20.255737   19.418165   19.457202 C.3        1 MOL1        -0.2879
     141    H7      21.265682   19.061846   19.234130 H          1 MOL1         0.0750
     142    H8      19.625678   19.210828   18.583371 H          1 MOL1         0.0750
     143    H9      20.302635   20.504693   19.594000 H          1 MOL1         0.0750
@<TRIPOS>BOND
    1     1     2    1
    2     1     3    1
    3     1     4    1
    4     4     5    1
    5     4     6    1
    6     6     7    1
    7     4     8    1
    8     8     9    1
    9     8    10    1
   10    10    11    1
   11     8    12    1
   12    12    13    1
   13    12    14    1
   14    14    15    1
   15     1    16    1
   16    14    16    1
   17    14    17    1
   18    17    18    1
   19    17    19    1
   20    17    20    1
   21    20    21    1
   22    22    23    1
   23    22    24    1
   24    22    25    1
   25    25    26    1
   26    25    27    1
   27    27    28    1
   28    25    29    1
   29    29    30    1
   30    29    31    1
   31    31    32    1
   32     3    33    1
   33    29    33    1
   34    33    34    1
   35    33    35    1
   36    35    36    1
   37    22    37    1
   38    35    37    1
   39    35    38    1
   40    38    39    1
   41    38    40    1
   42    38    41    1
   43    41    42    1
   44    43    44    1
   45    43    45    1
   46    43    46    1
   47    46    47    1
   48    46    48    1
   49    48    49    1
   50    46    50    1
   51    50    51    1
   52    50    52    1
   53    52    53    1
   54    24    54    1
   55    50    54    1
   56    54    55    1
   57    54    56    1
   58    56    57    1
   59    43    58    1
   60    56    58    1
   61    56    59    1
   62    59    60    1
   63    59    61    1
   64    59    62    1
   65    62    63    1
   66    64    65    1
   67    64    66    1
   68    64    67    1
   69    67    68    1
   70    67    69    1
   71    69    70    1
   72    67    71    1
   73    71    72    1
   74    71    73    1
   75    73    74    1
   76    45    75    1
   77    71    75    1
   78    75    76    1
   79    75    77    1
   80    77    78    1
   81    64    79    1
   82    77    79    1
   83    77    80    1
   84    80    81    1
   85    80    82    1
   86    80    83    1
   87    83    84    1
   88    85    86    1
   89    85    87    1
   90    85    88    1
   91    88    89    1
   92    88    90    1
   93    90    91    1
   94    88    92    1
   95    92    93    1
   96    92    94    1
   97    94    95    1
   98    66    96    1
   99    92    96    1
  100    96    97    1
  101    96    98    1
  102    98    99    1
  103    85   100    1
  104    98   100    1
  105    98   101    1
  106   101   102    1
  107   101   103    1
  108   101   104    1
  109   104   105    1
  110   106   107    1
  111    12   108    1
  112   106   108    1
  113   106   109    1
  114   109   110    1
  115   109   111    1
  116   111   112    1
  117   109   113    1
  118   113   114    1
  119   113   115    1
  120   115   116    1
  121    87   117    1
  122   113   117    1
  123   117   118    1
  124   117   119    1
  125   119   120    1
  126   106   121    1
  127   119   121    1
  128   119   122    1
  129   122   123    1
  130   122   124    1
  131   122   125    1
  132   125   126    1
  133   127   128    1
  134   127   129    2
  135   127   130    1
  136   130   131    1
  137   130   132    2
  138   132   133    1
  139   132   134    1
  140   134   135    1
  141   134   136    1
  142   134   137    1
  143   137   138    1
  144   137   139    1
  145   137   140    1
  146   140   141    1
  147   140   142    1
  148   140   143    1
@<TRIPOS>SUBSTRUCTURE
       1 MOL1            1 RESIDUE      1      MOL     
       2 MOL1          143 RESIDUE      1      MOL     
@<SCITEGIC>MOL_PROPERTY
feprocess Rank
SciTegic.value.IntegerValue
57

@<SCITEGIC>MOL_PROPERTY
Conf_Id
SciTegic.value.IntegerValue
978

@<SCITEGIC>MOL_PROPERTY
Probability
SciTegic.value.DoubleValue
0.02

@<SCITEGIC>MOL_PROPERTY
G
SciTegic.value.DoubleValue
499.794

@<SCITEGIC>MOL_PROPERTY
E
SciTegic.value.DoubleValue
316.233

@<SCITEGIC>MOL_PROPERTY
-TS
SciTegic.value.DoubleValue
183.561

@<SCITEGIC>MOL_PROPERTY
U+W
SciTegic.value.DoubleValue
190.145

@<SCITEGIC>MOL_PROPERTY
U
SciTegic.value.DoubleValue
265.478

@<SCITEGIC>MOL_PROPERTY
W
SciTegic.value.DoubleValue
-75.333

@<SCITEGIC>MOL_PROPERTY
W(PB)
SciTegic.value.DoubleValue
-81.241

@<SCITEGIC>MOL_PROPERTY
W(SA)
SciTegic.value.DoubleValue
5.908

@<SCITEGIC>MOL_PROPERTY
Valence
SciTegic.value.DoubleValue
153.502

@<SCITEGIC>MOL_PROPERTY
Coulomb
SciTegic.value.DoubleValue
137.611

@<SCITEGIC>MOL_PROPERTY
VdW
SciTegic.value.DoubleValue
-25.635

@<SCITEGIC>MOL_PROPERTY
VdW6
SciTegic.value.DoubleValue
-185.460

@<SCITEGIC>MOL_PROPERTY
VdW12
SciTegic.value.DoubleValue
159.825

@<SCITEGIC>MOL_PROPERTY
Bond
SciTegic.value.DoubleValue
5.058

@<SCITEGIC>MOL_PROPERTY
Angle
SciTegic.value.DoubleValue
14.384

@<SCITEGIC>MOL_PROPERTY
Pdih
SciTegic.value.DoubleValue
133.987

@<SCITEGIC>MOL_PROPERTY
Idih
SciTegic.value.DoubleValue
0.072

@<SCITEGIC>MOL_PROPERTY
Tether
SciTegic.value.DoubleValue
0.000

@<TRIPOS>MOLECULE
CD_guest-s19_fast_vm2_rndm.mol2 : feprocess host+ligand conformer 58
         143         148           2
SMALL
USER_CHARGES
 
@<TRIPOS>ATOM
       1    C1      16.292239   15.557599   19.830284 C.3        1 MOL1         0.2972
       2    H1      15.537627   15.434166   19.043687 H          1 MOL1         0.0751
       3    O1      15.712457   16.107366   21.027805 O.3        1 MOL1        -0.3740
       4    C2      16.900987   14.182295   20.192182 C.3        1 MOL1         0.1003
       5    H2      17.344027   13.769618   19.276273 H          1 MOL1         0.0783
       6    O2      15.877334   13.294817   20.666316 O.3        1 MOL1        -0.5519
       7    H3      15.369081   13.804848   21.336798 H          1 MOL1         0.3769
       8    C3      18.023824   14.308845   21.252339 C.3        1 MOL1         0.1053
       9    H4      17.564798   14.602260   22.206458 H          1 MOL1         0.0783
      10    O3      18.636621   13.022041   21.379242 O.3        1 MOL1        -0.5519
      11    H5      17.889991   12.385272   21.437767 H          1 MOL1         0.3769
      12    C4      19.065549   15.400183   20.865178 C.3        1 MOL1         0.1018
      13    H6      19.687590   15.030432   20.039902 H          1 MOL1         0.0783
      14    C5      18.367346   16.713181   20.416782 C.3        1 MOL1         0.1043
      15    H7      17.884202   17.163224   21.294493 H          1 MOL1         0.0783
      16    O4      17.374466   16.415637   19.402688 O.3        1 MOL1        -0.3740
      17    C6      19.334370   17.769012   19.835909 C.3        1 MOL1         0.0138
      18    H8      20.063867   18.051040   20.607026 H          1 MOL1         0.0794
      19    H9      18.758167   18.668678   19.584367 H          1 MOL1         0.0794
      20    O5      20.007931   17.275693   18.675396 O.3        1 MOL1        -0.5486
      21    H10     19.306982   16.956855   18.065641 H          1 MOL1         0.3769
      22    C7      14.410283   19.988751   21.564029 C.3        1 MOL1         0.2972
      23    H11     13.873119   20.939348   21.674125 H          1 MOL1         0.0751
      24    O6      15.828152   20.142260   21.776249 O.3        1 MOL1        -0.3740
      25    C8      13.855588   18.966769   22.576095 C.3        1 MOL1         0.1003
      26    H12     12.790512   18.824481   22.351204 H          1 MOL1         0.0783
      27    O7      13.997608   19.463267   23.917014 O.3        1 MOL1        -0.5519
      28    H13     14.817133   20.019308   23.936703 H          1 MOL1         0.3769
      29    C9      14.560134   17.601553   22.428800 C.3        1 MOL1         0.1053
      30    H14     15.584034   17.722679   22.805188 H          1 MOL1         0.0783
      31    O8      13.867419   16.642576   23.234858 O.3        1 MOL1        -0.5519
      32    H15     13.762133   17.074694   24.111103 H          1 MOL1         0.3769
      33    C10     14.657363   17.103316   20.957654 C.3        1 MOL1         0.1018
      34    H16     13.705678   16.629301   20.687036 H          1 MOL1         0.0783
      35    C11     14.971259   18.253366   19.933914 C.3        1 MOL1         0.1043
      36    H17     16.039760   18.489007   20.000108 H          1 MOL1         0.0783
      37    O9      14.211472   19.446601   20.249952 O.3        1 MOL1        -0.3740
      38    C12     14.646918   17.937389   18.448712 C.3        1 MOL1         0.0138
      39    H18     15.451548   17.334172   18.012931 H          1 MOL1         0.0794
      40    H19     14.635082   18.883128   17.889915 H          1 MOL1         0.0794
      41    O10     13.391954   17.264590   18.295305 O.3        1 MOL1        -0.5486
      42    H20     13.210309   17.185941   17.333194 H          1 MOL1         0.3769
      43    C13     18.584956   23.335747   21.812459 C.3        1 MOL1         0.2972
      44    H21     18.946521   24.371761   21.773543 H          1 MOL1         0.0751
      45    O11     19.683664   22.407984   21.889463 O.3        1 MOL1        -0.3740
      46    C14     17.678838   23.163750   23.060376 C.3        1 MOL1         0.1003
      47    H22     16.888456   23.922420   22.991994 H          1 MOL1         0.0783
      48    O12     18.425313   23.376491   24.267996 O.3        1 MOL1        -0.5519
      49    H23     19.380873   23.384136   24.015560 H          1 MOL1         0.3769
      50    C15     16.998549   21.777424   23.084758 C.3        1 MOL1         0.1053
      51    H24     17.773759   21.015262   23.236634 H          1 MOL1         0.0783
      52    O13     16.041203   21.734387   24.148718 O.3        1 MOL1        -0.5519
      53    H25     16.520955   22.088668   24.929929 H          1 MOL1         0.3769
      54    C16     16.303870   21.500462   21.734995 C.3        1 MOL1         0.1018
      55    H26     15.484723   22.221493   21.612623 H          1 MOL1         0.0783
      56    C17     17.301581   21.668881   20.559333 C.3        1 MOL1         0.1043
      57    H27     18.111530   20.940630   20.691982 H          1 MOL1         0.0783
      58    O14     17.841012   23.014076   20.614647 O.3        1 MOL1        -0.3740
      59    C18     16.701478   21.440541   19.148162 C.3        1 MOL1         0.0138
      60    H28     16.726390   20.366590   18.926255 H          1 MOL1         0.0794
      61    H29     17.347849   21.931145   18.408341 H          1 MOL1         0.0794
      62    O15     15.360131   21.925064   19.023324 O.3        1 MOL1        -0.5486
      63    H30     14.769420   21.225046   19.385838 H          1 MOL1         0.3769
      64    C19     23.836935   22.676380   21.118079 C.3        1 MOL1         0.2972
      65    H31     24.779003   23.056205   20.703657 H          1 MOL1         0.0751
      66    O16     24.057039   21.460040   21.858658 O.3        1 MOL1        -0.3740
      67    C20     23.228249   23.729283   22.084434 C.3        1 MOL1         0.1003
      68    H32     23.088080   24.652262   21.507481 H          1 MOL1         0.0783
      69    O17     24.125687   24.002752   23.174193 O.3        1 MOL1        -0.5519
      70    H33     24.123521   23.218399   23.783880 H          1 MOL1         0.3769
      71    C21     21.834249   23.270389   22.583915 C.3        1 MOL1         0.1053
      72    H34     21.958325   22.335436   23.133012 H          1 MOL1         0.0783
      73    O18     21.240024   24.255977   23.435806 O.3        1 MOL1        -0.5519
      74    H35     21.718377   24.158586   24.300098 H          1 MOL1         0.3769
      75    C22     20.923368   22.941212   21.383837 C.3        1 MOL1         0.1018
      76    H36     20.766243   23.852773   20.791459 H          1 MOL1         0.0783
      77    C23     21.601378   21.877571   20.486629 C.3        1 MOL1         0.1043
      78    H37     21.758012   20.964201   21.076607 H          1 MOL1         0.0783
      79    O19     22.879365   22.411403   20.063551 O.3        1 MOL1        -0.3740
      80    C24     20.783251   21.487244   19.229948 C.3        1 MOL1         0.0138
      81    H38     20.050564   20.723530   19.517425 H          1 MOL1         0.0794
      82    H39     21.459516   21.021568   18.500755 H          1 MOL1         0.0794
      83    O20     20.106519   22.601975   18.635891 O.3        1 MOL1        -0.5486
      84    H40     19.388760   22.873957   19.253931 H          1 MOL1         0.3769
      85    C25     25.207201   17.666314   21.059800 C.3        1 MOL1         0.2972
      86    H41     25.616034   16.683604   20.792292 H          1 MOL1         0.0751
      87    O21     23.789630   17.594172   21.334917 O.3        1 MOL1        -0.3740
      88    C26     25.964077   18.273903   22.264076 C.3        1 MOL1         0.1003
      89    H42     26.990950   18.480493   21.935971 H          1 MOL1         0.0783
      90    O22     26.006660   17.352417   23.364023 O.3        1 MOL1        -0.5519
      91    H43     25.091369   17.319115   23.737177 H          1 MOL1         0.3769
      92    C27     25.309323   19.620233   22.659602 C.3        1 MOL1         0.1053
      93    H44     24.310918   19.393114   23.054371 H          1 MOL1         0.0783
      94    O23     26.084008   20.272543   23.673452 O.3        1 MOL1        -0.5519
      95    H45     25.468172   20.893234   24.147004 H          1 MOL1         0.3769
      96    C28     25.137522   20.586591   21.450591 C.3        1 MOL1         0.1018
      97    H46     26.069917   21.154228   21.345207 H          1 MOL1         0.0783
      98    C29     24.790399   19.886723   20.088615 C.3        1 MOL1         0.1043
      99    H47     23.701162   19.760264   20.035686 H          1 MOL1         0.0783
     100    O24     25.409436   18.582614   19.975163 O.3        1 MOL1        -0.3740
     101    C30     25.250539   20.665571   18.825774 C.3        1 MOL1         0.0138
     102    H48     24.659939   21.578768   18.702184 H          1 MOL1         0.0794
     103    H49     25.039816   20.040328   17.947922 H          1 MOL1         0.0794
     104    O25     26.646980   20.991680   18.856769 O.3        1 MOL1        -0.5486
     105    H50     26.781446   21.711481   19.507870 H          1 MOL1         0.3769
     106    C31     20.874874   14.793381   22.443533 C.3        1 MOL1         0.2972
     107    H51     20.401587   13.867633   22.790183 H          1 MOL1         0.0751
     108    O26     19.873589   15.748279   22.017733 O.3        1 MOL1        -0.3740
     109    C32     21.677995   15.422174   23.607512 C.3        1 MOL1         0.1003
     110    H52     22.409320   14.674129   23.940597 H          1 MOL1         0.0783
     111    O27     20.812648   15.753208   24.703422 O.3        1 MOL1        -0.5519
     112    H53     20.076782   16.281342   24.324369 H          1 MOL1         0.3769
     113    C33     22.457163   16.673113   23.137973 C.3        1 MOL1         0.1053
     114    H54     21.735990   17.452638   22.858114 H          1 MOL1         0.0783
     115    O28     23.275384   17.124171   24.220995 O.3        1 MOL1        -0.5519
     116    H55     22.686959   17.111855   25.008415 H          1 MOL1         0.3769
     117    C34     23.322167   16.348960   21.894683 C.3        1 MOL1         0.1018
     118    H56     24.153106   15.700791   22.204204 H          1 MOL1         0.0783
     119    C35     22.490234   15.637538   20.795098 C.3        1 MOL1         0.1043
     120    H57     21.759835   16.355180   20.404395 H          1 MOL1         0.0783
     121    O29     21.790832   14.504267   21.362727 O.3        1 MOL1        -0.3740
     122    C36     23.335930   15.140056   19.598775 C.3        1 MOL1         0.0138
     123    H58     23.671422   16.013735   19.023529 H          1 MOL1         0.0794
     124    H59     22.691035   14.543953   18.939283 H          1 MOL1         0.0794
     125    O30     24.469474   14.369951   20.019895 O.3        1 MOL1        -0.5486
     126    H60     24.909222   14.022502   19.213527 H          1 MOL1         0.3769
     127    C1      23.031088   21.859336   25.380522 C.2        1 MOL1         0.6173
     128    O1      24.218710   21.836865   25.117475 O.co2      1 MOL1        -0.6755
     129    O2      22.452080   22.881410   25.700158 O.co2      1 MOL1        -0.6755
     130    C2      22.240321   20.645987   25.035127 C.2        1 MOL1        -0.1504
     131    H1      22.814557   19.791604   24.690120 H          1 MOL1         0.0814
     132    C3      20.889141   20.593483   25.056851 C.2        1 MOL1        -0.1394
     133    H2      20.303977   21.456994   25.372060 H          1 MOL1         0.0817
     134    C4      20.099465   19.398582   24.567737 C.3        1 MOL1        -0.1849
     135    H3      20.686495   18.483485   24.700301 H          1 MOL1         0.0736
     136    H4      19.923334   19.510815   23.489647 H          1 MOL1         0.0736
     137    C5      18.751177   19.240856   25.299043 C.3        1 MOL1        -0.1866
     138    H5      18.929372   18.947140   26.342454 H          1 MOL1         0.0738
     139    H6      18.228407   20.205398   25.330815 H          1 MOL1         0.0738
     140    C6      17.850015   18.198221   24.605474 C.3        1 MOL1        -0.2879
     141    H7      17.663660   18.478844   23.561105 H          1 MOL1         0.0750
     142    H8      18.310076   17.203111   24.617865 H          1 MOL1         0.0750
     143    H9      16.879735   18.128907   25.114112 H          1 MOL1         0.0750
@<TRIPOS>BOND
    1     1     2    1
    2     1     3    1
    3     1     4    1
    4     4     5    1
    5     4     6    1
    6     6     7    1
    7     4     8    1
    8     8     9    1
    9     8    10    1
   10    10    11    1
   11     8    12    1
   12    12    13    1
   13    12    14    1
   14    14    15    1
   15     1    16    1
   16    14    16    1
   17    14    17    1
   18    17    18    1
   19    17    19    1
   20    17    20    1
   21    20    21    1
   22    22    23    1
   23    22    24    1
   24    22    25    1
   25    25    26    1
   26    25    27    1
   27    27    28    1
   28    25    29    1
   29    29    30    1
   30    29    31    1
   31    31    32    1
   32     3    33    1
   33    29    33    1
   34    33    34    1
   35    33    35    1
   36    35    36    1
   37    22    37    1
   38    35    37    1
   39    35    38    1
   40    38    39    1
   41    38    40    1
   42    38    41    1
   43    41    42    1
   44    43    44    1
   45    43    45    1
   46    43    46    1
   47    46    47    1
   48    46    48    1
   49    48    49    1
   50    46    50    1
   51    50    51    1
   52    50    52    1
   53    52    53    1
   54    24    54    1
   55    50    54    1
   56    54    55    1
   57    54    56    1
   58    56    57    1
   59    43    58    1
   60    56    58    1
   61    56    59    1
   62    59    60    1
   63    59    61    1
   64    59    62    1
   65    62    63    1
   66    64    65    1
   67    64    66    1
   68    64    67    1
   69    67    68    1
   70    67    69    1
   71    69    70    1
   72    67    71    1
   73    71    72    1
   74    71    73    1
   75    73    74    1
   76    45    75    1
   77    71    75    1
   78    75    76    1
   79    75    77    1
   80    77    78    1
   81    64    79    1
   82    77    79    1
   83    77    80    1
   84    80    81    1
   85    80    82    1
   86    80    83    1
   87    83    84    1
   88    85    86    1
   89    85    87    1
   90    85    88    1
   91    88    89    1
   92    88    90    1
   93    90    91    1
   94    88    92    1
   95    92    93    1
   96    92    94    1
   97    94    95    1
   98    66    96    1
   99    92    96    1
  100    96    97    1
  101    96    98    1
  102    98    99    1
  103    85   100    1
  104    98   100    1
  105    98   101    1
  106   101   102    1
  107   101   103    1
  108   101   104    1
  109   104   105    1
  110   106   107    1
  111    12   108    1
  112   106   108    1
  113   106   109    1
  114   109   110    1
  115   109   111    1
  116   111   112    1
  117   109   113    1
  118   113   114    1
  119   113   115    1
  120   115   116    1
  121    87   117    1
  122   113   117    1
  123   117   118    1
  124   117   119    1
  125   119   120    1
  126   106   121    1
  127   119   121    1
  128   119   122    1
  129   122   123    1
  130   122   124    1
  131   122   125    1
  132   125   126    1
  133   127   128    1
  134   127   129    2
  135   127   130    1
  136   130   131    1
  137   130   132    2
  138   132   133    1
  139   132   134    1
  140   134   135    1
  141   134   136    1
  142   134   137    1
  143   137   138    1
  144   137   139    1
  145   137   140    1
  146   140   141    1
  147   140   142    1
  148   140   143    1
@<TRIPOS>SUBSTRUCTURE
       1 MOL1            1 RESIDUE      1      MOL     
       2 MOL1          143 RESIDUE      1      MOL     
@<SCITEGIC>MOL_PROPERTY
feprocess Rank
SciTegic.value.IntegerValue
58

@<SCITEGIC>MOL_PROPERTY
Conf_Id
SciTegic.value.IntegerValue
569

@<SCITEGIC>MOL_PROPERTY
Probability
SciTegic.value.DoubleValue
0.02

@<SCITEGIC>MOL_PROPERTY
G
SciTegic.value.DoubleValue
499.805

@<SCITEGIC>MOL_PROPERTY
E
SciTegic.value.DoubleValue
317.042

@<SCITEGIC>MOL_PROPERTY
-TS
SciTegic.value.DoubleValue
182.763

@<SCITEGIC>MOL_PROPERTY
U+W
SciTegic.value.DoubleValue
190.954

@<SCITEGIC>MOL_PROPERTY
U
SciTegic.value.DoubleValue
269.554

@<SCITEGIC>MOL_PROPERTY
W
SciTegic.value.DoubleValue
-78.600

@<SCITEGIC>MOL_PROPERTY
W(PB)
SciTegic.value.DoubleValue
-84.550

@<SCITEGIC>MOL_PROPERTY
W(SA)
SciTegic.value.DoubleValue
5.950

@<SCITEGIC>MOL_PROPERTY
Valence
SciTegic.value.DoubleValue
145.718

@<SCITEGIC>MOL_PROPERTY
Coulomb
SciTegic.value.DoubleValue
145.883

@<SCITEGIC>MOL_PROPERTY
VdW
SciTegic.value.DoubleValue
-22.047

@<SCITEGIC>MOL_PROPERTY
VdW6
SciTegic.value.DoubleValue
-179.656

@<SCITEGIC>MOL_PROPERTY
VdW12
SciTegic.value.DoubleValue
157.609

@<SCITEGIC>MOL_PROPERTY
Bond
SciTegic.value.DoubleValue
5.388

@<SCITEGIC>MOL_PROPERTY
Angle
SciTegic.value.DoubleValue
17.548

@<SCITEGIC>MOL_PROPERTY
Pdih
SciTegic.value.DoubleValue
122.662

@<SCITEGIC>MOL_PROPERTY
Idih
SciTegic.value.DoubleValue
0.120

@<SCITEGIC>MOL_PROPERTY
Tether
SciTegic.value.DoubleValue
0.000

@<TRIPOS>MOLECULE
CD_guest-s19_fast_vm2_rndm.mol2 : feprocess host+ligand conformer 59
         143         148           2
SMALL
USER_CHARGES
 
@<TRIPOS>ATOM
       1    C1      16.251755   15.294856   20.953924 C.3        1 MOL1         0.2972
       2    H1      15.253670   15.000820   20.605405 H          1 MOL1         0.0751
       3    O1      16.280402   16.687161   21.340114 O.3        1 MOL1        -0.3740
       4    C2      16.653271   14.433660   22.184000 C.3        1 MOL1         0.1003
       5    H2      16.623677   13.383981   21.865244 H          1 MOL1         0.0783
       6    O2      15.724328   14.610380   23.264726 O.3        1 MOL1        -0.5519
       7    H3      15.920571   15.488574   23.685736 H          1 MOL1         0.3769
       8    C3      18.104423   14.754011   22.623873 C.3        1 MOL1         0.1053
       9    H4      18.146967   15.808914   22.909402 H          1 MOL1         0.0783
      10    O3      18.504979   13.926357   23.724177 O.3        1 MOL1        -0.5519
      11    H5      18.006116   14.269710   24.510808 H          1 MOL1         0.3769
      12    C4      19.069995   14.593099   21.431263 C.3        1 MOL1         0.1018
      13    H6      19.095467   13.539678   21.121895 H          1 MOL1         0.0783
      14    C5      18.591672   15.462231   20.240673 C.3        1 MOL1         0.1043
      15    H7      18.605147   16.515623   20.549239 H          1 MOL1         0.0783
      16    O4      17.235625   15.072660   19.915124 O.3        1 MOL1        -0.3740
      17    C6      19.467834   15.342774   18.967408 C.3        1 MOL1         0.0138
      18    H8      20.270190   16.088539   19.030573 H          1 MOL1         0.0794
      19    H9      18.857334   15.608579   18.094375 H          1 MOL1         0.0794
      20    O5      20.034745   14.037264   18.793650 O.3        1 MOL1        -0.5486
      21    H10     20.678252   13.896245   19.526283 H          1 MOL1         0.3769
      22    C7      14.711042   20.382112   20.337074 C.3        1 MOL1         0.2972
      23    H11     14.137864   21.246080   19.979398 H          1 MOL1         0.0751
      24    O6      16.048645   20.765375   20.733039 O.3        1 MOL1        -0.3740
      25    C8      13.973975   19.667871   21.496874 C.3        1 MOL1         0.1003
      26    H12     13.050991   19.243540   21.081098 H          1 MOL1         0.0783
      27    O7      13.617853   20.593738   22.533323 O.3        1 MOL1        -0.5519
      28    H13     14.445503   20.770419   23.044952 H          1 MOL1         0.3769
      29    C9      14.842390   18.490778   22.011930 C.3        1 MOL1         0.1053
      30    H14     15.775011   18.903363   22.416028 H          1 MOL1         0.0783
      31    O8      14.154931   17.773700   23.042577 O.3        1 MOL1        -0.5519
      32    H15     14.866127   17.438496   23.650421 H          1 MOL1         0.3769
      33    C10     15.200891   17.518470   20.852576 C.3        1 MOL1         0.1018
      34    H16     14.304610   16.922510   20.637746 H          1 MOL1         0.0783
      35    C11     15.665449   18.256959   19.554633 C.3        1 MOL1         0.1043
      36    H17     16.696455   18.599104   19.704628 H          1 MOL1         0.0783
      37    O9      14.825862   19.408774   19.282862 O.3        1 MOL1        -0.3740
      38    C12     15.645785   17.384725   18.275121 C.3        1 MOL1         0.0138
      39    H18     16.504504   16.705230   18.290699 H          1 MOL1         0.0794
      40    H19     15.781951   18.042269   17.406068 H          1 MOL1         0.0794
      41    O10     14.428561   16.639283   18.141721 O.3        1 MOL1        -0.5486
      42    H20     14.479535   16.135886   17.300273 H          1 MOL1         0.3769
      43    C13     18.474394   23.799212   22.155066 C.3        1 MOL1         0.2972
      44    H21     18.913784   24.726813   22.544484 H          1 MOL1         0.0751
      45    O11     19.485592   22.863549   21.741520 O.3        1 MOL1        -0.3740
      46    C14     17.606836   23.124990   23.241912 C.3        1 MOL1         0.1003
      47    H22     16.793073   23.819076   23.489095 H          1 MOL1         0.0783
      48    O12     18.376882   22.862292   24.426419 O.3        1 MOL1        -0.5519
      49    H23     19.316608   23.083297   24.214099 H          1 MOL1         0.3769
      50    C15     16.976533   21.819818   22.705111 C.3        1 MOL1         0.1053
      51    H24     17.782728   21.100444   22.520325 H          1 MOL1         0.0783
      52    O13     16.096760   21.307551   23.707678 O.3        1 MOL1        -0.5519
      53    H25     16.634601   21.309651   24.531376 H          1 MOL1         0.3769
      54    C16     16.225366   22.053187   21.365141 C.3        1 MOL1         0.1018
      55    H26     15.267425   22.543685   21.579001 H          1 MOL1         0.0783
      56    C17     17.052532   22.911976   20.363894 C.3        1 MOL1         0.1043
      57    H27     17.862865   22.279764   19.979040 H          1 MOL1         0.0783
      58    O14     17.631022   24.071690   21.017048 O.3        1 MOL1        -0.3740
      59    C18     16.236347   23.398019   19.141578 C.3        1 MOL1         0.0138
      60    H28     15.929580   22.523877   18.551291 H          1 MOL1         0.0794
      61    H29     16.895018   24.002173   18.503518 H          1 MOL1         0.0794
      62    O15     15.085467   24.165909   19.518349 O.3        1 MOL1        -0.5486
      63    H30     14.457755   23.574894   19.982471 H          1 MOL1         0.3769
      64    C19     23.646909   22.696513   21.399754 C.3        1 MOL1         0.2972
      65    H31     24.698206   22.963112   21.231950 H          1 MOL1         0.0751
      66    O16     23.492808   21.287910   21.653207 O.3        1 MOL1        -0.3740
      67    C20     23.111379   23.438931   22.649837 C.3        1 MOL1         0.1003
      68    H32     23.218922   24.516394   22.469224 H          1 MOL1         0.0783
      69    O17     23.875259   23.071161   23.809449 O.3        1 MOL1        -0.5519
      70    H33     24.148357   22.130875   23.678027 H          1 MOL1         0.3769
      71    C21     21.609989   23.135689   22.874021 C.3        1 MOL1         0.1053
      72    H34     21.506170   22.073042   23.133693 H          1 MOL1         0.0783
      73    O18     21.118288   23.948969   23.943960 O.3        1 MOL1        -0.5519
      74    H35     21.810220   23.895203   24.641237 H          1 MOL1         0.3769
      75    C22     20.807829   23.399342   21.576250 C.3        1 MOL1         0.1018
      76    H36     20.787482   24.479275   21.378586 H          1 MOL1         0.0783
      77    C23     21.438094   22.674752   20.359102 C.3        1 MOL1         0.1043
      78    H37     21.365873   21.592756   20.530119 H          1 MOL1         0.0783
      79    O19     22.834840   23.051262   20.256598 O.3        1 MOL1        -0.3740
      80    C24     20.725673   22.967784   19.012573 C.3        1 MOL1         0.0138
      81    H38     19.908200   22.244880   18.892710 H          1 MOL1         0.0794
      82    H39     21.432922   22.789508   18.191818 H          1 MOL1         0.0794
      83    O20     20.199485   24.298480   18.930114 O.3        1 MOL1        -0.5486
      84    H40     19.455423   24.357485   19.571886 H          1 MOL1         0.3769
      85    C25     25.090225   17.559894   20.808830 C.3        1 MOL1         0.2972
      86    H41     25.682841   16.699569   20.471851 H          1 MOL1         0.0751
      87    O21     23.800626   17.159667   21.309297 O.3        1 MOL1        -0.3740
      88    C26     25.822180   18.351147   21.923552 C.3        1 MOL1         0.1003
      89    H42     26.756529   18.734116   21.492981 H          1 MOL1         0.0783
      90    O22     26.133236   17.514021   23.048281 O.3        1 MOL1        -0.5519
      91    H43     25.282606   17.115190   23.363456 H          1 MOL1         0.3769
      92    C27     24.967672   19.563380   22.368909 C.3        1 MOL1         0.1053
      93    H44     24.061497   19.181252   22.859870 H          1 MOL1         0.0783
      94    O23     25.713255   20.365244   23.291648 O.3        1 MOL1        -0.5519
      95    H45     26.110432   19.727061   23.924918 H          1 MOL1         0.3769
      96    C28     24.532453   20.426100   21.156702 C.3        1 MOL1         0.1018
      97    H46     25.407200   20.989950   20.807419 H          1 MOL1         0.0783
      98    C29     23.958785   19.569770   19.988761 C.3        1 MOL1         0.1043
      99    H47     22.989296   19.164099   20.302799 H          1 MOL1         0.0783
     100    O24     24.865989   18.473197   19.712656 O.3        1 MOL1        -0.3740
     101    C30     23.703976   20.333741   18.664154 C.3        1 MOL1         0.0138
     102    H48     22.681629   20.730144   18.683468 H          1 MOL1         0.0794
     103    H49     23.747303   19.615865   17.834240 H          1 MOL1         0.0794
     104    O25     24.628362   21.402771   18.435760 O.3        1 MOL1        -0.5486
     105    H50     24.274912   22.185027   18.917926 H          1 MOL1         0.3769
     106    C31     21.320115   14.032878   22.163150 C.3        1 MOL1         0.2972
     107    H51     20.822802   13.083847   22.402691 H          1 MOL1         0.0751
     108    O26     20.366522   15.064254   21.840724 O.3        1 MOL1        -0.3740
     109    C32     22.168639   14.498313   23.369936 C.3        1 MOL1         0.1003
     110    H52     22.941667   13.738263   23.542671 H          1 MOL1         0.0783
     111    O27     21.355930   14.623392   24.547296 O.3        1 MOL1        -0.5519
     112    H53     20.415315   14.651066   24.244792 H          1 MOL1         0.3769
     113    C33     22.874076   15.836005   23.058420 C.3        1 MOL1         0.1053
     114    H54     22.102843   16.612271   22.990544 H          1 MOL1         0.0783
     115    O28     23.774536   16.155454   24.123681 O.3        1 MOL1        -0.5519
     116    H55     23.252296   16.005026   24.943521 H          1 MOL1         0.3769
     117    C34     23.639671   15.788471   21.711105 C.3        1 MOL1         0.1018
     118    H56     24.602752   15.285097   21.869059 H          1 MOL1         0.0783
     119    C35     22.843668   15.094044   20.568235 C.3        1 MOL1         0.1043
     120    H57     22.071147   15.798333   20.237431 H          1 MOL1         0.0783
     121    O29     22.201711   13.878263   21.032340 O.3        1 MOL1        -0.3740
     122    C36     23.705309   14.753667   19.328897 C.3        1 MOL1         0.0138
     123    H58     23.971992   15.690701   18.821577 H          1 MOL1         0.0794
     124    H59     23.096358   14.166618   18.628174 H          1 MOL1         0.0794
     125    O30     24.894370   14.035105   19.679420 O.3        1 MOL1        -0.5486
     126    H60     25.347270   13.783055   18.845138 H          1 MOL1         0.3769
     127    C1      17.442308   16.757493   25.146153 C.2        1 MOL1         0.6173
     128    O1      16.377972   17.025977   24.617014 O.co2      1 MOL1        -0.6755
     129    O2      17.601799   15.752386   25.811685 O.co2      1 MOL1        -0.6755
     130    C2      18.662280   17.534473   24.787038 C.2        1 MOL1        -0.1504
     131    H1      19.592037   17.189410   25.233189 H          1 MOL1         0.0814
     132    C3      18.665492   18.571821   23.919164 C.2        1 MOL1        -0.1394
     133    H2      17.739764   18.907302   23.458060 H          1 MOL1         0.0817
     134    C4      19.915551   19.313818   23.490367 C.3        1 MOL1        -0.1849
     135    H3      20.722095   19.129285   24.212322 H          1 MOL1         0.0736
     136    H4      19.735895   20.395889   23.506560 H          1 MOL1         0.0736
     137    C5      20.395456   18.884463   22.085563 C.3        1 MOL1        -0.1866
     138    H5      21.380213   19.329043   21.896491 H          1 MOL1         0.0738
     139    H6      20.527528   17.796427   22.063682 H          1 MOL1         0.0738
     140    C6      19.425111   19.291709   20.957785 C.3        1 MOL1        -0.2879
     141    H7      19.310584   20.379384   20.908906 H          1 MOL1         0.0750
     142    H8      19.793983   18.944274   19.984895 H          1 MOL1         0.0750
     143    H9      18.433546   18.854162   21.123039 H          1 MOL1         0.0750
@<TRIPOS>BOND
    1     1     2    1
    2     1     3    1
    3     1     4    1
    4     4     5    1
    5     4     6    1
    6     6     7    1
    7     4     8    1
    8     8     9    1
    9     8    10    1
   10    10    11    1
   11     8    12    1
   12    12    13    1
   13    12    14    1
   14    14    15    1
   15     1    16    1
   16    14    16    1
   17    14    17    1
   18    17    18    1
   19    17    19    1
   20    17    20    1
   21    20    21    1
   22    22    23    1
   23    22    24    1
   24    22    25    1
   25    25    26    1
   26    25    27    1
   27    27    28    1
   28    25    29    1
   29    29    30    1
   30    29    31    1
   31    31    32    1
   32     3    33    1
   33    29    33    1
   34    33    34    1
   35    33    35    1
   36    35    36    1
   37    22    37    1
   38    35    37    1
   39    35    38    1
   40    38    39    1
   41    38    40    1
   42    38    41    1
   43    41    42    1
   44    43    44    1
   45    43    45    1
   46    43    46    1
   47    46    47    1
   48    46    48    1
   49    48    49    1
   50    46    50    1
   51    50    51    1
   52    50    52    1
   53    52    53    1
   54    24    54    1
   55    50    54    1
   56    54    55    1
   57    54    56    1
   58    56    57    1
   59    43    58    1
   60    56    58    1
   61    56    59    1
   62    59    60    1
   63    59    61    1
   64    59    62    1
   65    62    63    1
   66    64    65    1
   67    64    66    1
   68    64    67    1
   69    67    68    1
   70    67    69    1
   71    69    70    1
   72    67    71    1
   73    71    72    1
   74    71    73    1
   75    73    74    1
   76    45    75    1
   77    71    75    1
   78    75    76    1
   79    75    77    1
   80    77    78    1
   81    64    79    1
   82    77    79    1
   83    77    80    1
   84    80    81    1
   85    80    82    1
   86    80    83    1
   87    83    84    1
   88    85    86    1
   89    85    87    1
   90    85    88    1
   91    88    89    1
   92    88    90    1
   93    90    91    1
   94    88    92    1
   95    92    93    1
   96    92    94    1
   97    94    95    1
   98    66    96    1
   99    92    96    1
  100    96    97    1
  101    96    98    1
  102    98    99    1
  103    85   100    1
  104    98   100    1
  105    98   101    1
  106   101   102    1
  107   101   103    1
  108   101   104    1
  109   104   105    1
  110   106   107    1
  111    12   108    1
  112   106   108    1
  113   106   109    1
  114   109   110    1
  115   109   111    1
  116   111   112    1
  117   109   113    1
  118   113   114    1
  119   113   115    1
  120   115   116    1
  121    87   117    1
  122   113   117    1
  123   117   118    1
  124   117   119    1
  125   119   120    1
  126   106   121    1
  127   119   121    1
  128   119   122    1
  129   122   123    1
  130   122   124    1
  131   122   125    1
  132   125   126    1
  133   127   128    1
  134   127   129    2
  135   127   130    1
  136   130   131    1
  137   130   132    2
  138   132   133    1
  139   132   134    1
  140   134   135    1
  141   134   136    1
  142   134   137    1
  143   137   138    1
  144   137   139    1
  145   137   140    1
  146   140   141    1
  147   140   142    1
  148   140   143    1
@<TRIPOS>SUBSTRUCTURE
       1 MOL1            1 RESIDUE      1      MOL     
       2 MOL1          143 RESIDUE      1      MOL     
@<SCITEGIC>MOL_PROPERTY
feprocess Rank
SciTegic.value.IntegerValue
59

@<SCITEGIC>MOL_PROPERTY
Conf_Id
SciTegic.value.IntegerValue
899

@<SCITEGIC>MOL_PROPERTY
Probability
SciTegic.value.DoubleValue
0.02

@<SCITEGIC>MOL_PROPERTY
G
SciTegic.value.DoubleValue
499.846

@<SCITEGIC>MOL_PROPERTY
E
SciTegic.value.DoubleValue
316.539

@<SCITEGIC>MOL_PROPERTY
-TS
SciTegic.value.DoubleValue
183.307

@<SCITEGIC>MOL_PROPERTY
U+W
SciTegic.value.DoubleValue
190.451

@<SCITEGIC>MOL_PROPERTY
U
SciTegic.value.DoubleValue
266.739

@<SCITEGIC>MOL_PROPERTY
W
SciTegic.value.DoubleValue
-76.287

@<SCITEGIC>MOL_PROPERTY
W(PB)
SciTegic.value.DoubleValue
-82.268

@<SCITEGIC>MOL_PROPERTY
W(SA)
SciTegic.value.DoubleValue
5.981

@<SCITEGIC>MOL_PROPERTY
Valence
SciTegic.value.DoubleValue
151.164

@<SCITEGIC>MOL_PROPERTY
Coulomb
SciTegic.value.DoubleValue
139.589

@<SCITEGIC>MOL_PROPERTY
VdW
SciTegic.value.DoubleValue
-24.014

@<SCITEGIC>MOL_PROPERTY
VdW6
SciTegic.value.DoubleValue
-183.284

@<SCITEGIC>MOL_PROPERTY
VdW12
SciTegic.value.DoubleValue
159.270

@<SCITEGIC>MOL_PROPERTY
Bond
SciTegic.value.DoubleValue
5.073

@<SCITEGIC>MOL_PROPERTY
Angle
SciTegic.value.DoubleValue
14.960

@<SCITEGIC>MOL_PROPERTY
Pdih
SciTegic.value.DoubleValue
131.039

@<SCITEGIC>MOL_PROPERTY
Idih
SciTegic.value.DoubleValue
0.091

@<SCITEGIC>MOL_PROPERTY
Tether
SciTegic.value.DoubleValue
0.000

@<TRIPOS>MOLECULE
CD_guest-s19_fast_vm2_rndm.mol2 : feprocess host+ligand conformer 60
         143         148           2
SMALL
USER_CHARGES
 
@<TRIPOS>ATOM
       1    C1      16.142034   15.121915   21.365895 C.3        1 MOL1         0.2972
       2    H1      15.076926   14.902880   21.218478 H          1 MOL1         0.0751
       3    O1      16.349249   16.521302   21.662710 O.3        1 MOL1        -0.3740
       4    C2      16.687280   14.263965   22.537595 C.3        1 MOL1         0.1003
       5    H2      16.599493   13.214820   22.227436 H          1 MOL1         0.0783
       6    O2      15.902818   14.437374   23.728654 O.3        1 MOL1        -0.5519
       7    H3      16.155979   15.296249   24.156246 H          1 MOL1         0.3769
       8    C3      18.193328   14.558632   22.751251 C.3        1 MOL1         0.1053
       9    H4      18.318307   15.625330   22.977698 H          1 MOL1         0.0783
      10    O3      18.725291   13.776995   23.826528 O.3        1 MOL1        -0.5519
      11    H5      18.418631   14.253922   24.641975 H          1 MOL1         0.3769
      12    C4      18.957897   14.273404   21.440446 C.3        1 MOL1         0.1018
      13    H6      18.916375   13.195059   21.238756 H          1 MOL1         0.0783
      14    C5      18.329234   15.058211   20.255411 C.3        1 MOL1         0.1043
      15    H7      18.469019   16.128021   20.452946 H          1 MOL1         0.0783
      16    O4      16.904748   14.778342   20.183539 O.3        1 MOL1        -0.3740
      17    C6      18.968544   14.765009   18.873755 C.3        1 MOL1         0.0138
      18    H8      19.853305   15.404710   18.758572 H          1 MOL1         0.0794
      19    H9      18.258238   15.055738   18.088565 H          1 MOL1         0.0794
      20    O5      19.346341   13.394433   18.706970 O.3        1 MOL1        -0.5486
      21    H10     20.270802   13.316071   19.033207 H          1 MOL1         0.3769
      22    C7      14.879491   20.331231   20.741484 C.3        1 MOL1         0.2972
      23    H11     14.294122   21.177786   20.360281 H          1 MOL1         0.0751
      24    O6      16.133053   20.761790   21.304392 O.3        1 MOL1        -0.3740
      25    C8      14.095736   19.565760   21.836449 C.3        1 MOL1         0.1003
      26    H12     13.156743   19.216782   21.388329 H          1 MOL1         0.0783
      27    O7      13.797232   20.448320   22.932120 O.3        1 MOL1        -0.5519
      28    H13     14.657163   20.811608   23.259870 H          1 MOL1         0.3769
      29    C9      14.890483   18.318780   22.311533 C.3        1 MOL1         0.1053
      30    H14     15.774474   18.676702   22.851484 H          1 MOL1         0.0783
      31    O8      14.081895   17.520159   23.183357 O.3        1 MOL1        -0.5519
      32    H15     14.693197   17.193806   23.895059 H          1 MOL1         0.3769
      33    C10     15.379439   17.447822   21.120847 C.3        1 MOL1         0.1018
      34    H16     14.508537   16.927054   20.702076 H          1 MOL1         0.0783
      35    C11     16.050317   18.310401   20.009849 C.3        1 MOL1         0.1043
      36    H17     16.996823   18.703702   20.403126 H          1 MOL1         0.0783
      37    O9      15.170091   19.409283   19.673234 O.3        1 MOL1        -0.3740
      38    C12     16.381243   17.576966   18.685628 C.3        1 MOL1         0.0138
      39    H18     17.389789   17.157085   18.760514 H          1 MOL1         0.0794
      40    H19     16.414582   18.319662   17.877320 H          1 MOL1         0.0794
      41    O10     15.445029   16.544847   18.357805 O.3        1 MOL1        -0.5486
      42    H20     15.711953   15.750366   18.876024 H          1 MOL1         0.3769
      43    C13     18.505819   24.075775   21.853073 C.3        1 MOL1         0.2972
      44    H21     18.941180   25.072239   22.003465 H          1 MOL1         0.0751
      45    O11     19.525094   23.078150   21.653958 O.3        1 MOL1        -0.3740
      46    C14     17.674490   23.675020   23.095026 C.3        1 MOL1         0.1003
      47    H22     16.863245   24.406471   23.204260 H          1 MOL1         0.0783
      48    O12     18.498805   23.695953   24.270983 O.3        1 MOL1        -0.5519
      49    H23     19.426742   23.553084   23.965744 H          1 MOL1         0.3769
      50    C15     17.040552   22.278383   22.903311 C.3        1 MOL1         0.1053
      51    H24     17.852838   21.542312   22.900230 H          1 MOL1         0.0783
      52    O13     16.148315   22.001659   23.988125 O.3        1 MOL1        -0.5519
      53    H25     16.656144   22.230605   24.797852 H          1 MOL1         0.3769
      54    C16     16.280097   22.171120   21.558060 C.3        1 MOL1         0.1018
      55    H26     15.310100   22.675100   21.663875 H          1 MOL1         0.0783
      56    C17     17.073197   22.768257   20.360136 C.3        1 MOL1         0.1043
      57    H27     17.887654   22.070094   20.131846 H          1 MOL1         0.0783
      58    O14     17.637316   24.061109   20.702129 O.3        1 MOL1        -0.3740
      59    C18     16.234844   22.931653   19.069557 C.3        1 MOL1         0.0138
      60    H28     16.032746   21.935145   18.654396 H          1 MOL1         0.0794
      61    H29     16.834909   23.475983   18.327933 H          1 MOL1         0.0794
      62    O15     15.000703   23.618082   19.311910 O.3        1 MOL1        -0.5486
      63    H30     14.563098   23.760109   18.444264 H          1 MOL1         0.3769
      64    C19     23.526655   22.663763   20.574705 C.3        1 MOL1         0.2972
      65    H31     24.542907   22.802932   20.184111 H          1 MOL1         0.0751
      66    O16     23.290887   21.290093   20.950056 O.3        1 MOL1        -0.3740
      67    C20     23.252439   23.602496   21.783184 C.3        1 MOL1         0.1003
      68    H32     23.329374   24.632290   21.410637 H          1 MOL1         0.0783
      69    O17     24.209055   23.427606   22.837977 O.3        1 MOL1        -0.5519
      70    H33     24.091800   22.506261   23.181733 H          1 MOL1         0.3769
      71    C21     21.809880   23.398083   22.307689 C.3        1 MOL1         0.1053
      72    H34     21.726024   22.376297   22.704274 H          1 MOL1         0.0783
      73    O18     21.531515   24.346187   23.343781 O.3        1 MOL1        -0.5519
      74    H35     22.327443   24.339459   23.920428 H          1 MOL1         0.3769
      75    C22     20.786073   23.560676   21.157098 C.3        1 MOL1         0.1018
      76    H36     20.740302   24.622477   20.881437 H          1 MOL1         0.0783
      77    C23     21.172022   22.726285   19.901559 C.3        1 MOL1         0.1043
      78    H37     21.064043   21.661618   20.144922 H          1 MOL1         0.0783
      79    O19     22.554971   22.999880   19.558423 O.3        1 MOL1        -0.3740
      80    C24     20.294907   22.988529   18.648824 C.3        1 MOL1         0.0138
      81    H38     19.460987   22.276411   18.651875 H          1 MOL1         0.0794
      82    H39     20.891143   22.767031   17.753586 H          1 MOL1         0.0794
      83    O20     19.785163   24.326036   18.578492 O.3        1 MOL1        -0.5486
      84    H40     19.076363   24.403311   19.259470 H          1 MOL1         0.3769
      85    C25     24.990697   17.679198   21.970322 C.3        1 MOL1         0.2972
      86    H41     25.630477   16.836596   22.262697 H          1 MOL1         0.0751
      87    O21     23.699180   17.233592   21.507595 O.3        1 MOL1        -0.3740
      88    C26     24.802184   18.654120   23.161005 C.3        1 MOL1         0.1003
      89    H42     25.793672   19.052682   23.412711 H          1 MOL1         0.0783
      90    O22     24.256835   17.998515   24.316508 O.3        1 MOL1        -0.5519
      91    H43     24.122943   17.049122   24.077422 H          1 MOL1         0.3769
      92    C27     23.901669   19.840621   22.755404 C.3        1 MOL1         0.1053
      93    H44     22.897736   19.447833   22.557616 H          1 MOL1         0.0783
      94    O23     23.849895   20.769956   23.841678 O.3        1 MOL1        -0.5519
      95    H45     23.690822   20.208188   24.633848 H          1 MOL1         0.3769
      96    C28     24.405378   20.532728   21.463399 C.3        1 MOL1         0.1018
      97    H46     25.261716   21.172527   21.713904 H          1 MOL1         0.0783
      98    C29     24.804068   19.515203   20.353967 C.3        1 MOL1         0.1043
      99    H47     23.879560   19.097286   19.934390 H          1 MOL1         0.0783
     100    O24     25.602472   18.432668   20.901930 O.3        1 MOL1        -0.3740
     101    C30     25.584251   20.157354   19.182109 C.3        1 MOL1         0.0138
     102    H48     24.892757   20.790163   18.609483 H          1 MOL1         0.0794
     103    H49     25.927489   19.358821   18.510752 H          1 MOL1         0.0794
     104    O25     26.695970   20.939902   19.635631 O.3        1 MOL1        -0.5486
     105    H50     27.186728   21.248132   18.842585 H          1 MOL1         0.3769
     106    C31     21.356940   13.802985   21.338048 C.3        1 MOL1         0.2972
     107    H51     20.972106   12.784072   21.204979 H          1 MOL1         0.0751
     108    O26     20.304939   14.740067   21.635689 O.3        1 MOL1        -0.3740
     109    C32     22.360400   13.836369   22.514536 C.3        1 MOL1         0.1003
     110    H52     23.184616   13.156459   22.262402 H          1 MOL1         0.0783
     111    O27     21.734283   13.389185   23.727460 O.3        1 MOL1        -0.5519
     112    H53     20.799546   13.717786   23.710772 H          1 MOL1         0.3769
     113    C33     22.952196   15.253662   22.701975 C.3        1 MOL1         0.1053
     114    H54     22.148604   15.920490   23.046100 H          1 MOL1         0.0783
     115    O28     23.987696   15.183007   23.686837 O.3        1 MOL1        -0.5519
     116    H55     23.622576   14.600949   24.392054 H          1 MOL1         0.3769
     117    C34     23.509303   15.812062   21.365115 C.3        1 MOL1         0.1018
     118    H56     24.450708   15.301302   21.125725 H          1 MOL1         0.0783
     119    C35     22.513234   15.619187   20.186941 C.3        1 MOL1         0.1043
     120    H57     21.657967   16.284686   20.351529 H          1 MOL1         0.0783
     121    O29     22.041241   14.248650   20.147884 O.3        1 MOL1        -0.3740
     122    C36     23.103390   15.987395   18.803119 C.3        1 MOL1         0.0138
     123    H58     23.155246   17.081688   18.727080 H          1 MOL1         0.0794
     124    H59     22.410038   15.642004   18.024931 H          1 MOL1         0.0794
     125    O30     24.404205   15.427833   18.586342 O.3        1 MOL1        -0.5486
     126    H60     25.038740   15.942864   19.130051 H          1 MOL1         0.3769
     127    C1      17.296834   16.951313   25.143051 C.2        1 MOL1         0.6173
     128    O1      16.081258   16.946437   25.108005 O.co2      1 MOL1        -0.6755
     129    O2      17.941434   15.976874   25.484109 O.co2      1 MOL1        -0.6755
     130    C2      17.987633   18.140255   24.578371 C.2        1 MOL1        -0.1504
     131    H1      17.350790   18.982152   24.321718 H          1 MOL1         0.0814
     132    C3      19.315881   18.204164   24.339040 C.2        1 MOL1        -0.1394
     133    H2      19.969980   17.363783   24.569932 H          1 MOL1         0.0817
     134    C4      19.980570   19.404571   23.700262 C.3        1 MOL1        -0.1849
     135    H3      21.067544   19.338227   23.826664 H          1 MOL1         0.0736
     136    H4      19.666477   20.317716   24.223123 H          1 MOL1         0.0736
     137    C5      19.628278   19.534225   22.200529 C.3        1 MOL1        -0.1866
     138    H5      18.537783   19.555476   22.080255 H          1 MOL1         0.0738
     139    H6      20.008164   20.490618   21.824691 H          1 MOL1         0.0738
     140    C6      20.207797   18.392291   21.345383 C.3        1 MOL1        -0.2879
     141    H7      21.302536   18.414077   21.360968 H          1 MOL1         0.0750
     142    H8      19.879757   17.418422   21.726739 H          1 MOL1         0.0750
     143    H9      19.880511   18.483302   20.302423 H          1 MOL1         0.0750
@<TRIPOS>BOND
    1     1     2    1
    2     1     3    1
    3     1     4    1
    4     4     5    1
    5     4     6    1
    6     6     7    1
    7     4     8    1
    8     8     9    1
    9     8    10    1
   10    10    11    1
   11     8    12    1
   12    12    13    1
   13    12    14    1
   14    14    15    1
   15     1    16    1
   16    14    16    1
   17    14    17    1
   18    17    18    1
   19    17    19    1
   20    17    20    1
   21    20    21    1
   22    22    23    1
   23    22    24    1
   24    22    25    1
   25    25    26    1
   26    25    27    1
   27    27    28    1
   28    25    29    1
   29    29    30    1
   30    29    31    1
   31    31    32    1
   32     3    33    1
   33    29    33    1
   34    33    34    1
   35    33    35    1
   36    35    36    1
   37    22    37    1
   38    35    37    1
   39    35    38    1
   40    38    39    1
   41    38    40    1
   42    38    41    1
   43    41    42    1
   44    43    44    1
   45    43    45    1
   46    43    46    1
   47    46    47    1
   48    46    48    1
   49    48    49    1
   50    46    50    1
   51    50    51    1
   52    50    52    1
   53    52    53    1
   54    24    54    1
   55    50    54    1
   56    54    55    1
   57    54    56    1
   58    56    57    1
   59    43    58    1
   60    56    58    1
   61    56    59    1
   62    59    60    1
   63    59    61    1
   64    59    62    1
   65    62    63    1
   66    64    65    1
   67    64    66    1
   68    64    67    1
   69    67    68    1
   70    67    69    1
   71    69    70    1
   72    67    71    1
   73    71    72    1
   74    71    73    1
   75    73    74    1
   76    45    75    1
   77    71    75    1
   78    75    76    1
   79    75    77    1
   80    77    78    1
   81    64    79    1
   82    77    79    1
   83    77    80    1
   84    80    81    1
   85    80    82    1
   86    80    83    1
   87    83    84    1
   88    85    86    1
   89    85    87    1
   90    85    88    1
   91    88    89    1
   92    88    90    1
   93    90    91    1
   94    88    92    1
   95    92    93    1
   96    92    94    1
   97    94    95    1
   98    66    96    1
   99    92    96    1
  100    96    97    1
  101    96    98    1
  102    98    99    1
  103    85   100    1
  104    98   100    1
  105    98   101    1
  106   101   102    1
  107   101   103    1
  108   101   104    1
  109   104   105    1
  110   106   107    1
  111    12   108    1
  112   106   108    1
  113   106   109    1
  114   109   110    1
  115   109   111    1
  116   111   112    1
  117   109   113    1
  118   113   114    1
  119   113   115    1
  120   115   116    1
  121    87   117    1
  122   113   117    1
  123   117   118    1
  124   117   119    1
  125   119   120    1
  126   106   121    1
  127   119   121    1
  128   119   122    1
  129   122   123    1
  130   122   124    1
  131   122   125    1
  132   125   126    1
  133   127   128    1
  134   127   129    2
  135   127   130    1
  136   130   131    1
  137   130   132    2
  138   132   133    1
  139   132   134    1
  140   134   135    1
  141   134   136    1
  142   134   137    1
  143   137   138    1
  144   137   139    1
  145   137   140    1
  146   140   141    1
  147   140   142    1
  148   140   143    1
@<TRIPOS>SUBSTRUCTURE
       1 MOL1            1 RESIDUE      1      MOL     
       2 MOL1          143 RESIDUE      1      MOL     
@<SCITEGIC>MOL_PROPERTY
feprocess Rank
SciTegic.value.IntegerValue
60

@<SCITEGIC>MOL_PROPERTY
Conf_Id
SciTegic.value.IntegerValue
973

@<SCITEGIC>MOL_PROPERTY
Probability
SciTegic.value.DoubleValue
0.01

@<SCITEGIC>MOL_PROPERTY
G
SciTegic.value.DoubleValue
499.862

@<SCITEGIC>MOL_PROPERTY
E
SciTegic.value.DoubleValue
316.794

@<SCITEGIC>MOL_PROPERTY
-TS
SciTegic.value.DoubleValue
183.068

@<SCITEGIC>MOL_PROPERTY
U+W
SciTegic.value.DoubleValue
190.706

@<SCITEGIC>MOL_PROPERTY
U
SciTegic.value.DoubleValue
268.002

@<SCITEGIC>MOL_PROPERTY
W
SciTegic.value.DoubleValue
-77.296

@<SCITEGIC>MOL_PROPERTY
W(PB)
SciTegic.value.DoubleValue
-83.332

@<SCITEGIC>MOL_PROPERTY
W(SA)
SciTegic.value.DoubleValue
6.036

@<SCITEGIC>MOL_PROPERTY
Valence
SciTegic.value.DoubleValue
152.027

@<SCITEGIC>MOL_PROPERTY
Coulomb
SciTegic.value.DoubleValue
138.662

@<SCITEGIC>MOL_PROPERTY
VdW
SciTegic.value.DoubleValue
-22.688

@<SCITEGIC>MOL_PROPERTY
VdW6
SciTegic.value.DoubleValue
-181.533

@<SCITEGIC>MOL_PROPERTY
VdW12
SciTegic.value.DoubleValue
158.845

@<SCITEGIC>MOL_PROPERTY
Bond
SciTegic.value.DoubleValue
5.092

@<SCITEGIC>MOL_PROPERTY
Angle
SciTegic.value.DoubleValue
14.907

@<SCITEGIC>MOL_PROPERTY
Pdih
SciTegic.value.DoubleValue
131.979

@<SCITEGIC>MOL_PROPERTY
Idih
SciTegic.value.DoubleValue
0.049

@<SCITEGIC>MOL_PROPERTY
Tether
SciTegic.value.DoubleValue
0.000

@<TRIPOS>MOLECULE
CD_guest-s19_fast_vm2_rndm.mol2 : feprocess host+ligand conformer 61
         143         148           2
SMALL
USER_CHARGES
 
@<TRIPOS>ATOM
       1    C1      16.300946   15.399926   20.069197 C.3        1 MOL1         0.2972
       2    H1      15.352365   15.282065   19.529631 H          1 MOL1         0.0751
       3    O1      16.410851   16.700495   20.682409 O.3        1 MOL1        -0.3740
       4    C2      16.475482   14.311450   21.158599 C.3        1 MOL1         0.1003
       5    H2      16.519769   13.343681   20.642163 H          1 MOL1         0.0783
       6    O2      15.371880   14.294423   22.076228 O.3        1 MOL1        -0.5519
       7    H3      15.316369   15.195230   22.484741 H          1 MOL1         0.3769
       8    C3      17.815276   14.507066   21.912950 C.3        1 MOL1         0.1053
       9    H4      17.747895   15.437938   22.492173 H          1 MOL1         0.0783
      10    O3      18.012932   13.398655   22.795722 O.3        1 MOL1        -0.5519
      11    H5      17.156680   13.284892   23.264068 H          1 MOL1         0.3769
      12    C4      19.014701   14.630682   20.931213 C.3        1 MOL1         0.1018
      13    H6      19.260166   13.627146   20.560814 H          1 MOL1         0.0783
      14    C5      18.713412   15.562842   19.719394 C.3        1 MOL1         0.1043
      15    H7      18.700871   16.598773   20.079103 H          1 MOL1         0.0783
      16    O4      17.413477   15.247144   19.162463 O.3        1 MOL1        -0.3740
      17    C6      19.761591   15.501461   18.577736 C.3        1 MOL1         0.0138
      18    H8      20.537475   16.250310   18.776860 H          1 MOL1         0.0794
      19    H9      19.274866   15.801705   17.640228 H          1 MOL1         0.0794
      20    O5      20.360642   14.207640   18.425642 O.3        1 MOL1        -0.5486
      21    H10     20.854820   14.011512   19.253687 H          1 MOL1         0.3769
      22    C7      14.575015   20.220266   21.648090 C.3        1 MOL1         0.2972
      23    H11     13.917962   21.070822   21.870142 H          1 MOL1         0.0751
      24    O6      15.964991   20.599739   21.639362 O.3        1 MOL1        -0.3740
      25    C8      14.385726   19.113258   22.710304 C.3        1 MOL1         0.1003
      26    H12     13.351264   18.753403   22.635717 H          1 MOL1         0.0783
      27    O7      14.614746   19.627686   24.031856 O.3        1 MOL1        -0.5519
      28    H13     15.236345   20.393134   23.942892 H          1 MOL1         0.3769
      29    C9      15.328659   17.924543   22.421044 C.3        1 MOL1         0.1053
      30    H14     16.358974   18.269435   22.566813 H          1 MOL1         0.0783
      31    O8      15.044251   16.867467   23.341815 O.3        1 MOL1        -0.5519
      32    H15     14.977818   17.311414   24.217174 H          1 MOL1         0.3769
      33    C10     15.197073   17.422868   20.959679 C.3        1 MOL1         0.1018
      34    H16     14.306340   16.785683   20.880750 H          1 MOL1         0.0783
      35    C11     15.134236   18.579671   19.917362 C.3        1 MOL1         0.1043
      36    H17     16.150275   18.979847   19.806307 H          1 MOL1         0.0783
      37    O9      14.259107   19.650304   20.361475 O.3        1 MOL1        -0.3740
      38    C12     14.675304   18.117997   18.514003 C.3        1 MOL1         0.0138
      39    H18     15.470588   17.501606   18.073245 H          1 MOL1         0.0794
      40    H19     14.556249   19.003355   17.875076 H          1 MOL1         0.0794
      41    O10     13.453325   17.371213   18.564250 O.3        1 MOL1        -0.5486
      42    H20     13.184695   17.176544   17.639818 H          1 MOL1         0.3769
      43    C13     18.447847   23.947464   21.668795 C.3        1 MOL1         0.2972
      44    H21     18.838651   24.972460   21.626597 H          1 MOL1         0.0751
      45    O11     19.509447   22.982122   21.788955 O.3        1 MOL1        -0.3740
      46    C14     17.525201   23.788278   22.902782 C.3        1 MOL1         0.1003
      47    H22     16.702042   24.506538   22.795094 H          1 MOL1         0.0783
      48    O12     18.247548   24.073953   24.111146 O.3        1 MOL1        -0.5519
      49    H23     19.207714   23.984242   23.895749 H          1 MOL1         0.3769
      50    C15     16.916629   22.366978   22.956752 C.3        1 MOL1         0.1053
      51    H24     17.728815   21.649666   23.139862 H          1 MOL1         0.0783
      52    O13     15.960810   22.298969   24.019287 O.3        1 MOL1        -0.5519
      53    H25     16.404441   22.729997   24.784024 H          1 MOL1         0.3769
      54    C16     16.242876   22.009838   21.609854 C.3        1 MOL1         0.1018
      55    H26     15.331265   22.611640   21.499614 H          1 MOL1         0.0783
      56    C17     17.182557   22.276699   20.402818 C.3        1 MOL1         0.1043
      57    H27     18.021048   21.576631   20.470169 H          1 MOL1         0.0783
      58    O14     17.690721   23.634141   20.476078 O.3        1 MOL1        -0.3740
      59    C18     16.531343   22.048985   19.013849 C.3        1 MOL1         0.0138
      60    H28     16.665355   20.995022   18.738149 H          1 MOL1         0.0794
      61    H29     17.075408   22.644338   18.268409 H          1 MOL1         0.0794
      62    O15     15.136592   22.373216   18.982354 O.3        1 MOL1        -0.5486
      63    H30     14.658565   21.620319   19.399884 H          1 MOL1         0.3769
      64    C19     23.669149   22.675521   21.244589 C.3        1 MOL1         0.2972
      65    H31     24.687011   22.934578   20.926420 H          1 MOL1         0.0751
      66    O16     23.631303   21.339136   21.790205 O.3        1 MOL1        -0.3740
      67    C20     23.189442   23.690370   22.324972 C.3        1 MOL1         0.1003
      68    H32     23.360683   24.693322   21.913454 H          1 MOL1         0.0783
      69    O17     23.941152   23.544057   23.539622 O.3        1 MOL1        -0.5519
      70    H33     23.690748   22.658268   23.918693 H          1 MOL1         0.3769
      71    C21     21.679626   23.563724   22.647832 C.3        1 MOL1         0.1053
      72    H34     21.551314   22.658988   23.245925 H          1 MOL1         0.0783
      73    O18     21.248645   24.695870   23.410551 O.3        1 MOL1        -0.5519
      74    H35     21.914305   24.792582   24.127297 H          1 MOL1         0.3769
      75    C22     20.813568   23.425746   21.374080 C.3        1 MOL1         0.1018
      76    H36     20.776689   24.394676   20.858614 H          1 MOL1         0.0783
      77    C23     21.396960   22.364772   20.411492 C.3        1 MOL1         0.1043
      78    H37     21.380435   21.390122   20.914069 H          1 MOL1         0.0783
      79    O19     22.760691   22.740982   20.123326 O.3        1 MOL1        -0.3740
      80    C24     20.629236   22.206467   19.073773 C.3        1 MOL1         0.0138
      81    H38     19.832547   21.466288   19.217163 H          1 MOL1         0.0794
      82    H39     21.315260   21.790467   18.324264 H          1 MOL1         0.0794
      83    O20     20.064060   23.433607   18.596429 O.3        1 MOL1        -0.5486
      84    H40     19.299825   23.648041   19.180370 H          1 MOL1         0.3769
      85    C25     25.192469   17.576089   21.025462 C.3        1 MOL1         0.2972
      86    H41     25.768440   16.680611   20.759041 H          1 MOL1         0.0751
      87    O21     23.797522   17.263092   21.237837 O.3        1 MOL1        -0.3740
      88    C26     25.792536   18.282727   22.266468 C.3        1 MOL1         0.1003
      89    H42     26.774238   18.676239   21.972951 H          1 MOL1         0.0783
      90    O22     25.982574   17.362368   23.350743 O.3        1 MOL1        -0.5519
      91    H43     25.086361   17.173403   23.722601 H          1 MOL1         0.3769
      92    C27     24.896183   19.489815   22.646525 C.3        1 MOL1         0.1053
      93    H44     23.903182   19.104153   22.909251 H          1 MOL1         0.0783
      94    O23     25.442633   20.199889   23.763804 O.3        1 MOL1        -0.5519
      95    H45     24.657940   20.569589   24.246577 H          1 MOL1         0.3769
      96    C28     24.735122   20.464490   21.445901 C.3        1 MOL1         0.1018
      97    H46     25.671299   21.031145   21.362244 H          1 MOL1         0.0783
      98    C29     24.441947   19.727954   20.093646 C.3        1 MOL1         0.1043
      99    H47     23.385411   19.431715   20.086539 H          1 MOL1         0.0783
     100    O24     25.264643   18.539128   19.958816 O.3        1 MOL1        -0.3740
     101    C30     24.706394   20.566902   18.817161 C.3        1 MOL1         0.0138
     102    H48     23.868518   21.250179   18.647839 H          1 MOL1         0.0794
     103    H49     24.726242   19.885538   17.955945 H          1 MOL1         0.0794
     104    O25     25.936315   21.299902   18.888360 O.3        1 MOL1        -0.5486
     105    H50     26.055941   21.762728   18.030674 H          1 MOL1         0.3769
     106    C31     21.080006   14.283497   22.192227 C.3        1 MOL1         0.2972
     107    H51     20.589312   13.352322   22.503318 H          1 MOL1         0.0751
     108    O26     20.119304   15.214660   21.654860 O.3        1 MOL1        -0.3740
     109    C32     21.771296   14.938196   23.414400 C.3        1 MOL1         0.1003
     110    H52     22.491934   14.212777   23.813145 H          1 MOL1         0.0783
     111    O27     20.789166   15.228892   24.419201 O.3        1 MOL1        -0.5519
     112    H53     20.067248   15.706211   23.957779 H          1 MOL1         0.3769
     113    C33     22.554844   16.216153   23.018059 C.3        1 MOL1         0.1053
     114    H54     21.833640   16.990888   22.734479 H          1 MOL1         0.0783
     115    O28     23.347441   16.656537   24.129226 O.3        1 MOL1        -0.5519
     116    H55     22.847251   17.361002   24.620809 H          1 MOL1         0.3769
     117    C34     23.480484   15.969723   21.797704 C.3        1 MOL1         0.1018
     118    H56     24.377655   15.431989   22.132109 H          1 MOL1         0.0783
     119    C35     22.777698   15.176723   20.662767 C.3        1 MOL1         0.1043
     120    H57     22.052231   15.853697   20.200846 H          1 MOL1         0.0783
     121    O29     22.076489   14.018292   21.181436 O.3        1 MOL1        -0.3740
     122    C36     23.746261   14.710460   19.549084 C.3        1 MOL1         0.0138
     123    H58     24.089563   15.594407   18.994589 H          1 MOL1         0.0794
     124    H59     23.193977   14.077249   18.842032 H          1 MOL1         0.0794
     125    O30     24.873646   14.000822   20.076979 O.3        1 MOL1        -0.5486
     126    H60     25.403877   13.675566   19.317056 H          1 MOL1         0.3769
     127    C1      22.286803   20.069884   24.829076 C.2        1 MOL1         0.6173
     128    O1      22.698997   19.098178   25.434782 O.co2      1 MOL1        -0.6755
     129    O2      22.901098   21.121350   24.760649 O.co2      1 MOL1        -0.6755
     130    C2      21.049237   19.927016   24.015030 C.2        1 MOL1        -0.1504
     131    H1      20.754104   20.789626   23.432943 H          1 MOL1         0.0814
     132    C3      20.325920   18.787769   23.937677 C.2        1 MOL1        -0.1394
     133    H2      20.609270   17.917637   24.525948 H          1 MOL1         0.0817
     134    C4      19.112872   18.598282   23.048430 C.3        1 MOL1        -0.1849
     135    H3      18.239143   19.043085   23.541452 H          1 MOL1         0.0736
     136    H4      18.899059   17.526831   22.948763 H          1 MOL1         0.0736
     137    C5      19.259376   19.211188   21.634502 C.3        1 MOL1        -0.1866
     138    H5      18.360791   18.973198   21.050170 H          1 MOL1         0.0738
     139    H6      19.295341   20.301991   21.719880 H          1 MOL1         0.0738
     140    C6      20.510390   18.722373   20.872008 C.3        1 MOL1        -0.2879
     141    H7      20.542790   17.631199   20.825758 H          1 MOL1         0.0750
     142    H8      20.518006   19.107600   19.845397 H          1 MOL1         0.0750
     143    H9      21.430056   19.058242   21.366864 H          1 MOL1         0.0750
@<TRIPOS>BOND
    1     1     2    1
    2     1     3    1
    3     1     4    1
    4     4     5    1
    5     4     6    1
    6     6     7    1
    7     4     8    1
    8     8     9    1
    9     8    10    1
   10    10    11    1
   11     8    12    1
   12    12    13    1
   13    12    14    1
   14    14    15    1
   15     1    16    1
   16    14    16    1
   17    14    17    1
   18    17    18    1
   19    17    19    1
   20    17    20    1
   21    20    21    1
   22    22    23    1
   23    22    24    1
   24    22    25    1
   25    25    26    1
   26    25    27    1
   27    27    28    1
   28    25    29    1
   29    29    30    1
   30    29    31    1
   31    31    32    1
   32     3    33    1
   33    29    33    1
   34    33    34    1
   35    33    35    1
   36    35    36    1
   37    22    37    1
   38    35    37    1
   39    35    38    1
   40    38    39    1
   41    38    40    1
   42    38    41    1
   43    41    42    1
   44    43    44    1
   45    43    45    1
   46    43    46    1
   47    46    47    1
   48    46    48    1
   49    48    49    1
   50    46    50    1
   51    50    51    1
   52    50    52    1
   53    52    53    1
   54    24    54    1
   55    50    54    1
   56    54    55    1
   57    54    56    1
   58    56    57    1
   59    43    58    1
   60    56    58    1
   61    56    59    1
   62    59    60    1
   63    59    61    1
   64    59    62    1
   65    62    63    1
   66    64    65    1
   67    64    66    1
   68    64    67    1
   69    67    68    1
   70    67    69    1
   71    69    70    1
   72    67    71    1
   73    71    72    1
   74    71    73    1
   75    73    74    1
   76    45    75    1
   77    71    75    1
   78    75    76    1
   79    75    77    1
   80    77    78    1
   81    64    79    1
   82    77    79    1
   83    77    80    1
   84    80    81    1
   85    80    82    1
   86    80    83    1
   87    83    84    1
   88    85    86    1
   89    85    87    1
   90    85    88    1
   91    88    89    1
   92    88    90    1
   93    90    91    1
   94    88    92    1
   95    92    93    1
   96    92    94    1
   97    94    95    1
   98    66    96    1
   99    92    96    1
  100    96    97    1
  101    96    98    1
  102    98    99    1
  103    85   100    1
  104    98   100    1
  105    98   101    1
  106   101   102    1
  107   101   103    1
  108   101   104    1
  109   104   105    1
  110   106   107    1
  111    12   108    1
  112   106   108    1
  113   106   109    1
  114   109   110    1
  115   109   111    1
  116   111   112    1
  117   109   113    1
  118   113   114    1
  119   113   115    1
  120   115   116    1
  121    87   117    1
  122   113   117    1
  123   117   118    1
  124   117   119    1
  125   119   120    1
  126   106   121    1
  127   119   121    1
  128   119   122    1
  129   122   123    1
  130   122   124    1
  131   122   125    1
  132   125   126    1
  133   127   128    1
  134   127   129    2
  135   127   130    1
  136   130   131    1
  137   130   132    2
  138   132   133    1
  139   132   134    1
  140   134   135    1
  141   134   136    1
  142   134   137    1
  143   137   138    1
  144   137   139    1
  145   137   140    1
  146   140   141    1
  147   140   142    1
  148   140   143    1
@<TRIPOS>SUBSTRUCTURE
       1 MOL1            1 RESIDUE      1      MOL     
       2 MOL1          143 RESIDUE      1      MOL     
@<SCITEGIC>MOL_PROPERTY
feprocess Rank
SciTegic.value.IntegerValue
61

@<SCITEGIC>MOL_PROPERTY
Conf_Id
SciTegic.value.IntegerValue
423

@<SCITEGIC>MOL_PROPERTY
Probability
SciTegic.value.DoubleValue
0.01

@<SCITEGIC>MOL_PROPERTY
G
SciTegic.value.DoubleValue
499.872

@<SCITEGIC>MOL_PROPERTY
E
SciTegic.value.DoubleValue
314.988

@<SCITEGIC>MOL_PROPERTY
-TS
SciTegic.value.DoubleValue
184.884

@<SCITEGIC>MOL_PROPERTY
U+W
SciTegic.value.DoubleValue
188.900

@<SCITEGIC>MOL_PROPERTY
U
SciTegic.value.DoubleValue
267.288

@<SCITEGIC>MOL_PROPERTY
W
SciTegic.value.DoubleValue
-78.389

@<SCITEGIC>MOL_PROPERTY
W(PB)
SciTegic.value.DoubleValue
-84.380

@<SCITEGIC>MOL_PROPERTY
W(SA)
SciTegic.value.DoubleValue
5.991

@<SCITEGIC>MOL_PROPERTY
Valence
SciTegic.value.DoubleValue
150.402

@<SCITEGIC>MOL_PROPERTY
Coulomb
SciTegic.value.DoubleValue
142.343

@<SCITEGIC>MOL_PROPERTY
VdW
SciTegic.value.DoubleValue
-25.456

@<SCITEGIC>MOL_PROPERTY
VdW6
SciTegic.value.DoubleValue
-188.289

@<SCITEGIC>MOL_PROPERTY
VdW12
SciTegic.value.DoubleValue
162.833

@<SCITEGIC>MOL_PROPERTY
Bond
SciTegic.value.DoubleValue
5.289

@<SCITEGIC>MOL_PROPERTY
Angle
SciTegic.value.DoubleValue
15.203

@<SCITEGIC>MOL_PROPERTY
Pdih
SciTegic.value.DoubleValue
129.876

@<SCITEGIC>MOL_PROPERTY
Idih
SciTegic.value.DoubleValue
0.035

@<SCITEGIC>MOL_PROPERTY
Tether
SciTegic.value.DoubleValue
0.000

@<TRIPOS>MOLECULE
CD_guest-s19_fast_vm2_rndm.mol2 : feprocess host+ligand conformer 62
         143         148           2
SMALL
USER_CHARGES
 
@<TRIPOS>ATOM
       1    C1      16.223801   15.187173   21.104732 C.3        1 MOL1         0.2972
       2    H1      15.180539   14.961867   20.849749 H          1 MOL1         0.0751
       3    O1      16.380799   16.549219   21.543427 O.3        1 MOL1        -0.3740
       4    C2      16.687533   14.277131   22.270785 C.3        1 MOL1         0.1003
       5    H2      16.568529   13.235019   21.946932 H          1 MOL1         0.0783
       6    O2      15.877989   14.510364   23.434706 O.3        1 MOL1        -0.5519
       7    H3      15.655231   15.474182   23.438132 H          1 MOL1         0.3769
       8    C3      18.182438   14.510587   22.598721 C.3        1 MOL1         0.1053
       9    H4      18.287750   15.522447   23.011340 H          1 MOL1         0.0783
      10    O3      18.618429   13.547039   23.563047 O.3        1 MOL1        -0.5519
      11    H5      17.905691   13.524824   24.240416 H          1 MOL1         0.3769
      12    C4      19.042997   14.416102   21.315515 C.3        1 MOL1         0.1018
      13    H6      19.056024   13.374049   20.969339 H          1 MOL1         0.0783
      14    C5      18.481252   15.315477   20.183176 C.3        1 MOL1         0.1043
      15    H7      18.553624   16.362739   20.505036 H          1 MOL1         0.0783
      16    O4      17.089090   14.972284   19.966566 O.3        1 MOL1        -0.3740
      17    C6      19.247349   15.203686   18.838971 C.3        1 MOL1         0.0138
      18    H8      20.053603   15.948257   18.839628 H          1 MOL1         0.0794
      19    H9      18.566217   15.474847   18.021561 H          1 MOL1         0.0794
      20    O5      19.799395   13.901134   18.607852 O.3        1 MOL1        -0.5486
      21    H10     20.525685   13.771296   19.260726 H          1 MOL1         0.3769
      22    C7      14.659463   20.328801   21.117520 C.3        1 MOL1         0.2972
      23    H11     13.959000   21.147843   20.910947 H          1 MOL1         0.0751
      24    O6      15.949124   20.829087   21.522384 O.3        1 MOL1        -0.3740
      25    C8      14.108087   19.454853   22.271886 C.3        1 MOL1         0.1003
      26    H12     13.118684   19.089858   21.967146 H          1 MOL1         0.0783
      27    O7      13.978869   20.238559   23.468607 O.3        1 MOL1        -0.5519
      28    H13     14.742506   20.865667   23.480623 H          1 MOL1         0.3769
      29    C9      15.012195   18.225785   22.529029 C.3        1 MOL1         0.1053
      30    H14     15.964572   18.581761   22.939935 H          1 MOL1         0.0783
      31    O8      14.378786   17.350187   23.468655 O.3        1 MOL1        -0.5519
      32    H15     14.075716   17.934375   24.198681 H          1 MOL1         0.3769
      33    C10     15.315405   17.461114   21.219348 C.3        1 MOL1         0.1018
      34    H16     14.403087   16.938599   20.903074 H          1 MOL1         0.0783
      35    C11     15.793038   18.420984   20.093742 C.3        1 MOL1         0.1043
      36    H17     16.759651   18.839965   20.397099 H          1 MOL1         0.0783
      37    O9      14.832095   19.497310   19.949537 O.3        1 MOL1        -0.3740
      38    C12     16.002259   17.762992   18.706095 C.3        1 MOL1         0.0138
      39    H18     17.018557   17.351205   18.666527 H          1 MOL1         0.0794
      40    H19     15.945766   18.543289   17.935926 H          1 MOL1         0.0794
      41    O10     15.054063   16.729281   18.421792 O.3        1 MOL1        -0.5486
      42    H20     15.451023   15.890104   18.746379 H          1 MOL1         0.3769
      43    C13     18.496183   24.086797   20.950372 C.3        1 MOL1         0.2972
      44    H21     18.947762   25.052982   20.690961 H          1 MOL1         0.0751
      45    O11     19.493247   23.120279   21.343763 O.3        1 MOL1        -0.3740
      46    C14     17.458068   24.236218   22.094671 C.3        1 MOL1         0.1003
      47    H22     16.648586   24.875907   21.720497 H          1 MOL1         0.0783
      48    O12     18.042600   24.864682   23.244696 O.3        1 MOL1        -0.5519
      49    H23     18.777821   24.281826   23.559735 H          1 MOL1         0.3769
      50    C15     16.847424   22.849399   22.430469 C.3        1 MOL1         0.1053
      51    H24     17.655288   22.200460   22.790147 H          1 MOL1         0.0783
      52    O13     15.833507   22.954544   23.437952 O.3        1 MOL1        -0.5519
      53    H25     16.302411   22.768747   24.294270 H          1 MOL1         0.3769
      54    C16     16.249375   22.193812   21.160816 C.3        1 MOL1         0.1018
      55    H26     15.346434   22.753490   20.884152 H          1 MOL1         0.0783
      56    C17     17.260431   22.206603   19.975852 C.3        1 MOL1         0.1043
      57    H27     18.080689   21.524912   20.224019 H          1 MOL1         0.0783
      58    O14     17.791651   23.546113   19.810687 O.3        1 MOL1        -0.3740
      59    C18     16.698529   21.742520   18.608863 C.3        1 MOL1         0.0138
      60    H28     16.800834   20.652715   18.543848 H          1 MOL1         0.0794
      61    H29     17.325959   22.165846   17.813199 H          1 MOL1         0.0794
      62    O15     15.330869   22.111510   18.402772 O.3        1 MOL1        -0.5486
      63    H30     14.787540   21.368594   18.749690 H          1 MOL1         0.3769
      64    C19     23.506312   22.551787   22.184388 C.3        1 MOL1         0.2972
      65    H31     24.569333   22.672145   22.431056 H          1 MOL1         0.0751
      66    O16     23.204191   21.180678   21.858097 O.3        1 MOL1        -0.3740
      67    C20     22.645595   22.972929   23.400019 C.3        1 MOL1         0.1003
      68    H32     22.882158   24.020759   23.625278 H          1 MOL1         0.0783
      69    O17     22.981108   22.159523   24.533295 O.3        1 MOL1        -0.5519
      70    H33     23.072384   21.242468   24.193514 H          1 MOL1         0.3769
      71    C21     21.132858   22.887047   23.082103 C.3        1 MOL1         0.1053
      72    H34     20.860004   21.827907   22.978998 H          1 MOL1         0.0783
      73    O18     20.387821   23.483250   24.148160 O.3        1 MOL1        -0.5519
      74    H35     20.334285   22.802449   24.871850 H          1 MOL1         0.3769
      75    C22     20.784030   23.612020   21.756651 C.3        1 MOL1         0.1018
      76    H36     20.775933   24.695528   21.935232 H          1 MOL1         0.0783
      77    C23     21.770762   23.263084   20.609410 C.3        1 MOL1         0.1043
      78    H37     21.571270   22.225454   20.317310 H          1 MOL1         0.0783
      79    O19     23.147540   23.374390   21.053781 O.3        1 MOL1        -0.3740
      80    C24     21.586239   24.142119   19.349174 C.3        1 MOL1         0.0138
      81    H38     20.631961   23.874710   18.875250 H          1 MOL1         0.0794
      82    H39     22.383728   23.903904   18.632692 H          1 MOL1         0.0794
      83    O20     21.597819   25.540603   19.661479 O.3        1 MOL1        -0.5486
      84    H40     21.545573   26.035506   18.814942 H          1 MOL1         0.3769
      85    C25     24.967887   17.646743   20.610321 C.3        1 MOL1         0.2972
      86    H41     25.581157   16.846840   20.175709 H          1 MOL1         0.0751
      87    O21     23.692557   17.153546   21.068693 O.3        1 MOL1        -0.3740
      88    C26     25.693162   18.340813   21.791674 C.3        1 MOL1         0.1003
      89    H42     26.594129   18.816438   21.382712 H          1 MOL1         0.0783
      90    O22     26.085789   17.402078   22.804018 O.3        1 MOL1        -0.5519
      91    H43     25.261780   16.955520   23.124871 H          1 MOL1         0.3769
      92    C27     24.798870   19.454620   22.391067 C.3        1 MOL1         0.1053
      93    H44     23.923125   18.980437   22.855599 H          1 MOL1         0.0783
      94    O23     25.543210   20.173165   23.379197 O.3        1 MOL1        -0.5519
      95    H45     25.974138   19.483990   23.931282 H          1 MOL1         0.3769
      96    C28     24.298743   20.430492   21.292450 C.3        1 MOL1         0.1018
      97    H46     25.136417   21.080419   21.007849 H          1 MOL1         0.0783
      98    C29     23.772602   19.700069   20.022017 C.3        1 MOL1         0.1043
      99    H47     22.816217   19.226794   20.269098 H          1 MOL1         0.0783
     100    O24     24.714401   18.672047   19.624629 O.3        1 MOL1        -0.3740
     101    C30     23.508680   20.622591   18.802374 C.3        1 MOL1         0.0138
     102    H48     22.464185   20.954042   18.835057 H          1 MOL1         0.0794
     103    H49     23.617658   20.027884   17.885622 H          1 MOL1         0.0794
     104    O25     24.374160   21.763926   18.750417 O.3        1 MOL1        -0.5486
     105    H50     24.112736   22.363893   19.487685 H          1 MOL1         0.3769
     106    C31     21.362549   13.876513   21.836511 C.3        1 MOL1         0.2972
     107    H51     20.911972   12.894895   22.032990 H          1 MOL1         0.0751
     108    O26     20.361558   14.891254   21.631616 O.3        1 MOL1        -0.3740
     109    C32     22.244973   14.301951   23.032356 C.3        1 MOL1         0.1003
     110    H52     23.058244   13.569942   23.121243 H          1 MOL1         0.0783
     111    O27     21.480636   14.313318   24.248943 O.3        1 MOL1        -0.5519
     112    H53     20.527658   14.268786   23.988827 H          1 MOL1         0.3769
     113    C33     22.873100   15.690093   22.775560 C.3        1 MOL1         0.1053
     114    H54     22.063486   16.429835   22.775145 H          1 MOL1         0.0783
     115    O28     23.788915   15.989427   23.832711 O.3        1 MOL1        -0.5519
     116    H55     23.299175   15.764285   24.655678 H          1 MOL1         0.3769
     117    C34     23.591112   15.756127   21.401373 C.3        1 MOL1         0.1018
     118    H56     24.575545   15.278192   21.491803 H          1 MOL1         0.0783
     119    C35     22.773555   15.099702   20.250122 C.3        1 MOL1         0.1043
     120    H57     21.960387   15.788834   19.992071 H          1 MOL1         0.0783
     121    O29     22.197965   13.832188   20.661529 O.3        1 MOL1        -0.3740
     122    C36     23.597383   14.871358   18.960663 C.3        1 MOL1         0.0138
     123    H58     23.814456   15.848702   18.508654 H          1 MOL1         0.0794
     124    H59     22.980999   14.310890   18.244866 H          1 MOL1         0.0794
     125    O30     24.821577   14.172924   19.219199 O.3        1 MOL1        -0.5486
     126    H60     25.252351   13.996245   18.354412 H          1 MOL1         0.3769
     127    C1      18.495622   21.129360   25.245027 C.2        1 MOL1         0.6173
     128    O1      17.456448   21.740647   25.409952 O.co2      1 MOL1        -0.6755
     129    O2      19.532018   21.409472   25.819131 O.co2      1 MOL1        -0.6755
     130    C2      18.490992   20.032828   24.238847 C.2        1 MOL1        -0.1504
     131    H1      17.540637   19.852922   23.747369 H          1 MOL1         0.0814
     132    C3      19.576242   19.290543   23.922273 C.2        1 MOL1        -0.1394
     133    H2      20.533791   19.471214   24.409715 H          1 MOL1         0.0817
     134    C4      19.565346   18.165950   22.907063 C.3        1 MOL1        -0.1849
     135    H3      18.544664   17.969568   22.554450 H          1 MOL1         0.0736
     136    H4      19.904265   17.245533   23.399273 H          1 MOL1         0.0736
     137    C5      20.486528   18.457936   21.703955 C.3        1 MOL1        -0.1866
     138    H5      21.478848   18.751141   22.070969 H          1 MOL1         0.0738
     139    H6      20.624989   17.541330   21.117899 H          1 MOL1         0.0738
     140    C6      19.921126   19.557251   20.785964 C.3        1 MOL1        -0.2879
     141    H7      19.799030   20.493199   21.342192 H          1 MOL1         0.0750
     142    H8      20.589738   19.747330   19.939016 H          1 MOL1         0.0750
     143    H9      18.945053   19.264143   20.385509 H          1 MOL1         0.0750
@<TRIPOS>BOND
    1     1     2    1
    2     1     3    1
    3     1     4    1
    4     4     5    1
    5     4     6    1
    6     6     7    1
    7     4     8    1
    8     8     9    1
    9     8    10    1
   10    10    11    1
   11     8    12    1
   12    12    13    1
   13    12    14    1
   14    14    15    1
   15     1    16    1
   16    14    16    1
   17    14    17    1
   18    17    18    1
   19    17    19    1
   20    17    20    1
   21    20    21    1
   22    22    23    1
   23    22    24    1
   24    22    25    1
   25    25    26    1
   26    25    27    1
   27    27    28    1
   28    25    29    1
   29    29    30    1
   30    29    31    1
   31    31    32    1
   32     3    33    1
   33    29    33    1
   34    33    34    1
   35    33    35    1
   36    35    36    1
   37    22    37    1
   38    35    37    1
   39    35    38    1
   40    38    39    1
   41    38    40    1
   42    38    41    1
   43    41    42    1
   44    43    44    1
   45    43    45    1
   46    43    46    1
   47    46    47    1
   48    46    48    1
   49    48    49    1
   50    46    50    1
   51    50    51    1
   52    50    52    1
   53    52    53    1
   54    24    54    1
   55    50    54    1
   56    54    55    1
   57    54    56    1
   58    56    57    1
   59    43    58    1
   60    56    58    1
   61    56    59    1
   62    59    60    1
   63    59    61    1
   64    59    62    1
   65    62    63    1
   66    64    65    1
   67    64    66    1
   68    64    67    1
   69    67    68    1
   70    67    69    1
   71    69    70    1
   72    67    71    1
   73    71    72    1
   74    71    73    1
   75    73    74    1
   76    45    75    1
   77    71    75    1
   78    75    76    1
   79    75    77    1
   80    77    78    1
   81    64    79    1
   82    77    79    1
   83    77    80    1
   84    80    81    1
   85    80    82    1
   86    80    83    1
   87    83    84    1
   88    85    86    1
   89    85    87    1
   90    85    88    1
   91    88    89    1
   92    88    90    1
   93    90    91    1
   94    88    92    1
   95    92    93    1
   96    92    94    1
   97    94    95    1
   98    66    96    1
   99    92    96    1
  100    96    97    1
  101    96    98    1
  102    98    99    1
  103    85   100    1
  104    98   100    1
  105    98   101    1
  106   101   102    1
  107   101   103    1
  108   101   104    1
  109   104   105    1
  110   106   107    1
  111    12   108    1
  112   106   108    1
  113   106   109    1
  114   109   110    1
  115   109   111    1
  116   111   112    1
  117   109   113    1
  118   113   114    1
  119   113   115    1
  120   115   116    1
  121    87   117    1
  122   113   117    1
  123   117   118    1
  124   117   119    1
  125   119   120    1
  126   106   121    1
  127   119   121    1
  128   119   122    1
  129   122   123    1
  130   122   124    1
  131   122   125    1
  132   125   126    1
  133   127   128    1
  134   127   129    2
  135   127   130    1
  136   130   131    1
  137   130   132    2
  138   132   133    1
  139   132   134    1
  140   134   135    1
  141   134   136    1
  142   134   137    1
  143   137   138    1
  144   137   139    1
  145   137   140    1
  146   140   141    1
  147   140   142    1
  148   140   143    1
@<TRIPOS>SUBSTRUCTURE
       1 MOL1            1 RESIDUE      1      MOL     
       2 MOL1          143 RESIDUE      1      MOL     
@<SCITEGIC>MOL_PROPERTY
feprocess Rank
SciTegic.value.IntegerValue
62

@<SCITEGIC>MOL_PROPERTY
Conf_Id
SciTegic.value.IntegerValue
488

@<SCITEGIC>MOL_PROPERTY
Probability
SciTegic.value.DoubleValue
0.01

@<SCITEGIC>MOL_PROPERTY
G
SciTegic.value.DoubleValue
499.888

@<SCITEGIC>MOL_PROPERTY
E
SciTegic.value.DoubleValue
317.627

@<SCITEGIC>MOL_PROPERTY
-TS
SciTegic.value.DoubleValue
182.261

@<SCITEGIC>MOL_PROPERTY
U+W
SciTegic.value.DoubleValue
191.539

@<SCITEGIC>MOL_PROPERTY
U
SciTegic.value.DoubleValue
271.591

@<SCITEGIC>MOL_PROPERTY
W
SciTegic.value.DoubleValue
-80.052

@<SCITEGIC>MOL_PROPERTY
W(PB)
SciTegic.value.DoubleValue
-86.003

@<SCITEGIC>MOL_PROPERTY
W(SA)
SciTegic.value.DoubleValue
5.951

@<SCITEGIC>MOL_PROPERTY
Valence
SciTegic.value.DoubleValue
151.234

@<SCITEGIC>MOL_PROPERTY
Coulomb
SciTegic.value.DoubleValue
145.853

@<SCITEGIC>MOL_PROPERTY
VdW
SciTegic.value.DoubleValue
-25.495

@<SCITEGIC>MOL_PROPERTY
VdW6
SciTegic.value.DoubleValue
-182.571

@<SCITEGIC>MOL_PROPERTY
VdW12
SciTegic.value.DoubleValue
157.076

@<SCITEGIC>MOL_PROPERTY
Bond
SciTegic.value.DoubleValue
4.837

@<SCITEGIC>MOL_PROPERTY
Angle
SciTegic.value.DoubleValue
13.990

@<SCITEGIC>MOL_PROPERTY
Pdih
SciTegic.value.DoubleValue
132.400

@<SCITEGIC>MOL_PROPERTY
Idih
SciTegic.value.DoubleValue
0.006

@<SCITEGIC>MOL_PROPERTY
Tether
SciTegic.value.DoubleValue
0.000

@<TRIPOS>MOLECULE
CD_guest-s19_fast_vm2_rndm.mol2 : feprocess host+ligand conformer 63
         143         148           2
SMALL
USER_CHARGES
 
@<TRIPOS>ATOM
       1    C1      15.921500   15.087360   20.895757 C.3        1 MOL1         0.2972
       2    H1      14.901196   14.883813   20.546548 H          1 MOL1         0.0751
       3    O1      15.928392   16.152150   21.866517 O.3        1 MOL1        -0.3740
       4    C2      16.521589   13.810187   21.550743 C.3        1 MOL1         0.1003
       5    H2      16.471196   13.014165   20.796747 H          1 MOL1         0.0783
       6    O2      15.762719   13.409819   22.701540 O.3        1 MOL1        -0.5519
       7    H3      15.936007   14.091029   23.408205 H          1 MOL1         0.3769
       8    C3      18.009509   13.999117   21.940671 C.3        1 MOL1         0.1053
       9    H4      18.058772   14.704741   22.777246 H          1 MOL1         0.0783
      10    O3      18.567290   12.742526   22.339545 O.3        1 MOL1        -0.5519
      11    H5      17.918467   12.364176   22.973892 H          1 MOL1         0.3769
      12    C4      18.825611   14.590968   20.769224 C.3        1 MOL1         0.1018
      13    H6      18.924305   13.828242   19.985364 H          1 MOL1         0.0783
      14    C5      18.131480   15.837799   20.166418 C.3        1 MOL1         0.1043
      15    H7      18.091546   16.621153   20.931549 H          1 MOL1         0.0783
      16    O4      16.783184   15.468377   19.795603 O.3        1 MOL1        -0.3740
      17    C6      18.851416   16.441871   18.932804 C.3        1 MOL1         0.0138
      18    H8      19.599180   17.162744   19.287556 H          1 MOL1         0.0794
      19    H9      18.118603   17.005711   18.340450 H          1 MOL1         0.0794
      20    O5      19.491499   15.457258   18.112583 O.3        1 MOL1        -0.5486
      21    H10     20.283204   15.137275   18.604707 H          1 MOL1         0.3769
      22    C7      14.784889   20.126889   21.817374 C.3        1 MOL1         0.2972
      23    H11     14.258354   21.090172   21.819730 H          1 MOL1         0.0751
      24    O6      16.213132   20.320677   21.718668 O.3        1 MOL1        -0.3740
      25    C8      14.444993   19.360812   23.114553 C.3        1 MOL1         0.1003
      26    H12     13.359585   19.199768   23.136067 H          1 MOL1         0.0783
      27    O7      14.831815   20.154591   24.246786 O.3        1 MOL1        -0.5519
      28    H13     15.704736   20.543271   24.020349 H          1 MOL1         0.3769
      29    C9      15.133423   17.976987   23.131705 C.3        1 MOL1         0.1053
      30    H14     16.210440   18.160378   23.224033 H          1 MOL1         0.0783
      31    O8      14.674903   17.210037   24.251967 O.3        1 MOL1        -0.5519
      32    H15     15.302573   16.445250   24.347518 H          1 MOL1         0.3769
      33    C10     14.888259   17.161767   21.831495 C.3        1 MOL1         0.1018
      34    H16     13.896804   16.696280   21.899582 H          1 MOL1         0.0783
      35    C11     14.978838   18.027128   20.528974 C.3        1 MOL1         0.1043
      36    H17     16.040337   18.164690   20.301329 H          1 MOL1         0.0783
      37    O9      14.356863   19.327636   20.701262 O.3        1 MOL1        -0.3740
      38    C12     14.288428   17.412531   19.281004 C.3        1 MOL1         0.0138
      39    H18     14.911244   16.618759   18.857084 H          1 MOL1         0.0794
      40    H19     14.215450   18.189969   18.508463 H          1 MOL1         0.0794
      41    O10     12.984744   16.899470   19.580350 O.3        1 MOL1        -0.5486
      42    H20     12.576076   16.611206   18.735107 H          1 MOL1         0.3769
      43    C13     18.735741   23.454079   20.410543 C.3        1 MOL1         0.2972
      44    H21     19.106071   24.317493   19.842969 H          1 MOL1         0.0751
      45    O11     19.759218   22.896194   21.253167 O.3        1 MOL1        -0.3740
      46    C14     17.552760   23.867039   21.325521 C.3        1 MOL1         0.1003
      47    H22     16.787524   24.320534   20.682253 H          1 MOL1         0.0783
      48    O12     17.978048   24.830864   22.303948 O.3        1 MOL1        -0.5519
      49    H23     18.822928   24.496254   22.697730 H          1 MOL1         0.3769
      50    C15     16.916795   22.637837   22.026195 C.3        1 MOL1         0.1053
      51    H24     17.638647   22.242650   22.754375 H          1 MOL1         0.0783
      52    O13     15.724400   23.057764   22.695483 O.3        1 MOL1        -0.5519
      53    H25     15.978499   23.866047   23.193332 H          1 MOL1         0.3769
      54    C16     16.598611   21.516292   21.002840 C.3        1 MOL1         0.1018
      55    H26     15.793172   21.862419   20.341163 H          1 MOL1         0.0783
      56    C17     17.841335   21.194591   20.134248 C.3        1 MOL1         0.1043
      57    H27     18.631106   20.807098   20.787390 H          1 MOL1         0.0783
      58    O14     18.288483   22.419239   19.507126 O.3        1 MOL1        -0.3740
      59    C18     17.599428   20.138068   19.028901 C.3        1 MOL1         0.0138
      60    H28     17.728268   19.144349   19.473241 H          1 MOL1         0.0794
      61    H29     18.379118   20.245662   18.263170 H          1 MOL1         0.0794
      62    O15     16.301547   20.242060   18.429215 O.3        1 MOL1        -0.5486
      63    H30     15.634206   20.076272   19.133707 H          1 MOL1         0.3769
      64    C19     23.812727   22.993438   21.910126 C.3        1 MOL1         0.2972
      65    H31     24.879186   23.223820   22.028393 H          1 MOL1         0.0751
      66    O16     23.543459   21.596645   22.135967 O.3        1 MOL1        -0.3740
      67    C20     22.984509   23.796752   22.940552 C.3        1 MOL1         0.1003
      68    H32     23.137544   24.864622   22.737166 H          1 MOL1         0.0783
      69    O17     23.427424   23.490820   24.272081 O.3        1 MOL1        -0.5519
      70    H33     23.657432   22.530847   24.274561 H          1 MOL1         0.3769
      71    C21     21.477255   23.484793   22.790530 C.3        1 MOL1         0.1053
      72    H34     21.318901   22.446347   23.106675 H          1 MOL1         0.0783
      73    O18     20.715009   24.360405   23.628992 O.3        1 MOL1        -0.5519
      74    H35     21.162697   24.331342   24.503552 H          1 MOL1         0.3769
      75    C22     20.999131   23.625839   21.324456 C.3        1 MOL1         0.1018
      76    H36     20.859452   24.694032   21.111489 H          1 MOL1         0.0783
      77    C23     21.977062   22.993803   20.290492 C.3        1 MOL1         0.1043
      78    H37     21.868556   21.903637   20.355246 H          1 MOL1         0.0783
      79    O19     23.351235   23.349671   20.591942 O.3        1 MOL1        -0.3740
      80    C24     21.687638   23.398687   18.824235 C.3        1 MOL1         0.0138
      81    H38     20.773359   22.888904   18.492649 H          1 MOL1         0.0794
      82    H39     22.508035   23.035623   18.191071 H          1 MOL1         0.0794
      83    O20     21.537688   24.815740   18.673952 O.3        1 MOL1        -0.5486
      84    H40     21.439023   25.005395   17.715457 H          1 MOL1         0.3769
      85    C25     25.114798   17.783278   21.725818 C.3        1 MOL1         0.2972
      86    H41     25.760273   16.906780   21.586267 H          1 MOL1         0.0751
      87    O21     23.727429   17.410913   21.848491 O.3        1 MOL1        -0.3740
      88    C26     25.528647   18.533151   23.014247 C.3        1 MOL1         0.1003
      89    H42     26.575292   18.842422   22.896220 H          1 MOL1         0.0783
      90    O22     25.413856   17.667186   24.154862 O.3        1 MOL1        -0.5519
      91    H43     24.682165   17.029445   23.959467 H          1 MOL1         0.3769
      92    C27     24.673441   19.805853   23.211980 C.3        1 MOL1         0.1053
      93    H44     23.649186   19.488713   23.445636 H          1 MOL1         0.0783
      94    O23     25.196641   20.568062   24.305277 O.3        1 MOL1        -0.5519
      95    H45     25.335835   19.915577   25.027064 H          1 MOL1         0.3769
      96    C28     24.634672   20.679072   21.931289 C.3        1 MOL1         0.1018
      97    H46     25.598879   21.195645   21.838751 H          1 MOL1         0.0783
      98    C29     24.356521   19.841394   20.646163 C.3        1 MOL1         0.1043
      99    H47     23.317405   19.493754   20.689709 H          1 MOL1         0.0783
     100    O24     25.240511   18.692174   20.612899 O.3        1 MOL1        -0.3740
     101    C30     24.515847   20.598932   19.302569 C.3        1 MOL1         0.0138
     102    H48     23.547532   21.033322   19.028709 H          1 MOL1         0.0794
     103    H49     24.764517   19.870846   18.518789 H          1 MOL1         0.0794
     104    O25     25.509230   21.628287   19.343663 O.3        1 MOL1        -0.5486
     105    H50     25.066868   22.429191   19.707616 H          1 MOL1         0.3769
     106    C31     21.217228   14.171115   20.905248 C.3        1 MOL1         0.2972
     107    H51     20.882739   13.184798   20.558216 H          1 MOL1         0.0751
     108    O26     20.103574   14.994773   21.293853 O.3        1 MOL1        -0.3740
     109    C32     22.150008   14.000223   22.132382 C.3        1 MOL1         0.1003
     110    H52     22.986007   13.360817   21.820497 H          1 MOL1         0.0783
     111    O27     21.452395   13.365418   23.215742 O.3        1 MOL1        -0.5519
     112    H53     20.487532   13.426966   23.008630 H          1 MOL1         0.3769
     113    C33     22.735010   15.358048   22.586300 C.3        1 MOL1         0.1053
     114    H54     21.913284   15.979403   22.969248 H          1 MOL1         0.0783
     115    O28     23.705898   15.139997   23.615985 O.3        1 MOL1        -0.5519
     116    H55     23.273232   14.514933   24.239657 H          1 MOL1         0.3769
     117    C34     23.386397   16.089383   21.390058 C.3        1 MOL1         0.1018
     118    H56     24.271434   15.521340   21.074448 H          1 MOL1         0.0783
     119    C35     22.397723   16.199189   20.196943 C.3        1 MOL1         0.1043
     120    H57     21.549951   16.816310   20.514717 H          1 MOL1         0.0783
     121    O29     21.927142   14.868938   19.855991 O.3        1 MOL1        -0.3740
     122    C36     22.978241   16.857494   18.919660 C.3        1 MOL1         0.0138
     123    H58     22.866366   17.945299   19.007311 H          1 MOL1         0.0794
     124    H59     22.372734   16.544696   18.058481 H          1 MOL1         0.0794
     125    O30     24.354814   16.534546   18.695525 O.3        1 MOL1        -0.5486
     126    H60     24.884310   17.147550   19.255796 H          1 MOL1         0.3769
     127    C1      17.369033   15.443738   25.639279 C.2        1 MOL1         0.6173
     128    O1      16.565752   15.164143   24.765336 O.co2      1 MOL1        -0.6755
     129    O2      17.344159   14.944822   26.747507 O.co2      1 MOL1        -0.6755
     130    C2      18.425333   16.459192   25.368673 C.2        1 MOL1        -0.1504
     131    H1      19.084778   16.696258   26.199969 H          1 MOL1         0.0814
     132    C3      18.580986   17.075115   24.176095 C.2        1 MOL1        -0.1394
     133    H2      17.925323   16.829890   23.346574 H          1 MOL1         0.0817
     134    C4      19.628830   18.127077   23.887582 C.3        1 MOL1        -0.1849
     135    H3      20.615168   17.774484   24.217517 H          1 MOL1         0.0736
     136    H4      19.406493   19.037271   24.460155 H          1 MOL1         0.0736
     137    C5      19.673666   18.460163   22.382981 C.3        1 MOL1        -0.1866
     138    H5      19.918521   17.550569   21.827342 H          1 MOL1         0.0738
     139    H6      18.681271   18.790820   22.048617 H          1 MOL1         0.0738
     140    C6      20.717280   19.540865   22.058807 C.3        1 MOL1        -0.2879
     141    H7      21.710628   19.227527   22.395419 H          1 MOL1         0.0750
     142    H8      20.764978   19.729947   20.979581 H          1 MOL1         0.0750
     143    H9      20.464420   20.480605   22.562132 H          1 MOL1         0.0750
@<TRIPOS>BOND
    1     1     2    1
    2     1     3    1
    3     1     4    1
    4     4     5    1
    5     4     6    1
    6     6     7    1
    7     4     8    1
    8     8     9    1
    9     8    10    1
   10    10    11    1
   11     8    12    1
   12    12    13    1
   13    12    14    1
   14    14    15    1
   15     1    16    1
   16    14    16    1
   17    14    17    1
   18    17    18    1
   19    17    19    1
   20    17    20    1
   21    20    21    1
   22    22    23    1
   23    22    24    1
   24    22    25    1
   25    25    26    1
   26    25    27    1
   27    27    28    1
   28    25    29    1
   29    29    30    1
   30    29    31    1
   31    31    32    1
   32     3    33    1
   33    29    33    1
   34    33    34    1
   35    33    35    1
   36    35    36    1
   37    22    37    1
   38    35    37    1
   39    35    38    1
   40    38    39    1
   41    38    40    1
   42    38    41    1
   43    41    42    1
   44    43    44    1
   45    43    45    1
   46    43    46    1
   47    46    47    1
   48    46    48    1
   49    48    49    1
   50    46    50    1
   51    50    51    1
   52    50    52    1
   53    52    53    1
   54    24    54    1
   55    50    54    1
   56    54    55    1
   57    54    56    1
   58    56    57    1
   59    43    58    1
   60    56    58    1
   61    56    59    1
   62    59    60    1
   63    59    61    1
   64    59    62    1
   65    62    63    1
   66    64    65    1
   67    64    66    1
   68    64    67    1
   69    67    68    1
   70    67    69    1
   71    69    70    1
   72    67    71    1
   73    71    72    1
   74    71    73    1
   75    73    74    1
   76    45    75    1
   77    71    75    1
   78    75    76    1
   79    75    77    1
   80    77    78    1
   81    64    79    1
   82    77    79    1
   83    77    80    1
   84    80    81    1
   85    80    82    1
   86    80    83    1
   87    83    84    1
   88    85    86    1
   89    85    87    1
   90    85    88    1
   91    88    89    1
   92    88    90    1
   93    90    91    1
   94    88    92    1
   95    92    93    1
   96    92    94    1
   97    94    95    1
   98    66    96    1
   99    92    96    1
  100    96    97    1
  101    96    98    1
  102    98    99    1
  103    85   100    1
  104    98   100    1
  105    98   101    1
  106   101   102    1
  107   101   103    1
  108   101   104    1
  109   104   105    1
  110   106   107    1
  111    12   108    1
  112   106   108    1
  113   106   109    1
  114   109   110    1
  115   109   111    1
  116   111   112    1
  117   109   113    1
  118   113   114    1
  119   113   115    1
  120   115   116    1
  121    87   117    1
  122   113   117    1
  123   117   118    1
  124   117   119    1
  125   119   120    1
  126   106   121    1
  127   119   121    1
  128   119   122    1
  129   122   123    1
  130   122   124    1
  131   122   125    1
  132   125   126    1
  133   127   128    1
  134   127   129    2
  135   127   130    1
  136   130   131    1
  137   130   132    2
  138   132   133    1
  139   132   134    1
  140   134   135    1
  141   134   136    1
  142   134   137    1
  143   137   138    1
  144   137   139    1
  145   137   140    1
  146   140   141    1
  147   140   142    1
  148   140   143    1
@<TRIPOS>SUBSTRUCTURE
       1 MOL1            1 RESIDUE      1      MOL     
       2 MOL1          143 RESIDUE      1      MOL     
@<SCITEGIC>MOL_PROPERTY
feprocess Rank
SciTegic.value.IntegerValue
63

@<SCITEGIC>MOL_PROPERTY
Conf_Id
SciTegic.value.IntegerValue
282

@<SCITEGIC>MOL_PROPERTY
Probability
SciTegic.value.DoubleValue
0.01

@<SCITEGIC>MOL_PROPERTY
G
SciTegic.value.DoubleValue
499.905

@<SCITEGIC>MOL_PROPERTY
E
SciTegic.value.DoubleValue
317.637

@<SCITEGIC>MOL_PROPERTY
-TS
SciTegic.value.DoubleValue
182.269

@<SCITEGIC>MOL_PROPERTY
U+W
SciTegic.value.DoubleValue
191.549

@<SCITEGIC>MOL_PROPERTY
U
SciTegic.value.DoubleValue
273.832

@<SCITEGIC>MOL_PROPERTY
W
SciTegic.value.DoubleValue
-82.283

@<SCITEGIC>MOL_PROPERTY
W(PB)
SciTegic.value.DoubleValue
-88.332

@<SCITEGIC>MOL_PROPERTY
W(SA)
SciTegic.value.DoubleValue
6.049

@<SCITEGIC>MOL_PROPERTY
Valence
SciTegic.value.DoubleValue
149.153

@<SCITEGIC>MOL_PROPERTY
Coulomb
SciTegic.value.DoubleValue
149.586

@<SCITEGIC>MOL_PROPERTY
VdW
SciTegic.value.DoubleValue
-24.908

@<SCITEGIC>MOL_PROPERTY
VdW6
SciTegic.value.DoubleValue
-179.655

@<SCITEGIC>MOL_PROPERTY
VdW12
SciTegic.value.DoubleValue
154.748

@<SCITEGIC>MOL_PROPERTY
Bond
SciTegic.value.DoubleValue
4.972

@<SCITEGIC>MOL_PROPERTY
Angle
SciTegic.value.DoubleValue
14.548

@<SCITEGIC>MOL_PROPERTY
Pdih
SciTegic.value.DoubleValue
129.632

@<SCITEGIC>MOL_PROPERTY
Idih
SciTegic.value.DoubleValue
0.001

@<SCITEGIC>MOL_PROPERTY
Tether
SciTegic.value.DoubleValue
0.000

@<TRIPOS>MOLECULE
CD_guest-s19_fast_vm2_rndm.mol2 : feprocess host+ligand conformer 64
         143         148           2
SMALL
USER_CHARGES
 
@<TRIPOS>ATOM
       1    C1      16.403945   15.548601   20.154339 C.3        1 MOL1         0.2972
       2    H1      15.425659   15.476947   19.661859 H          1 MOL1         0.0751
       3    O1      16.565422   16.810150   20.831349 O.3        1 MOL1        -0.3740
       4    C2      16.600947   14.403261   21.185593 C.3        1 MOL1         0.1003
       5    H2      16.541432   13.456751   20.632779 H          1 MOL1         0.0783
       6    O2      15.580369   14.415548   22.195402 O.3        1 MOL1        -0.5519
       7    H3      15.603476   15.308120   22.625336 H          1 MOL1         0.3769
       8    C3      18.006291   14.487777   21.832916 C.3        1 MOL1         0.1053
       9    H4      18.057853   15.409977   22.428926 H          1 MOL1         0.0783
      10    O3      18.219147   13.350964   22.676694 O.3        1 MOL1        -0.5519
      11    H5      17.382380   13.247373   23.182672 H          1 MOL1         0.3769
      12    C4      19.104519   14.552135   20.743452 C.3        1 MOL1         0.1018
      13    H6      19.163081   13.576761   20.242539 H          1 MOL1         0.0783
      14    C5      18.804312   15.646146   19.684615 C.3        1 MOL1         0.1043
      15    H7      18.862594   16.624571   20.175424 H          1 MOL1         0.0783
      16    O4      17.462735   15.443215   19.174276 O.3        1 MOL1        -0.3740
      17    C6      19.797396   15.685692   18.493811 C.3        1 MOL1         0.0138
      18    H8      20.614787   16.371750   18.748759 H          1 MOL1         0.0794
      19    H9      19.283546   16.116739   17.624325 H          1 MOL1         0.0794
      20    O5      20.337327   14.400724   18.159747 O.3        1 MOL1        -0.5486
      21    H10     20.975484   14.159559   18.871265 H          1 MOL1         0.3769
      22    C7      14.671040   20.303214   21.895972 C.3        1 MOL1         0.2972
      23    H11     13.982857   21.117734   22.155855 H          1 MOL1         0.0751
      24    O6      16.032178   20.759755   21.802447 O.3        1 MOL1        -0.3740
      25    C8      14.613235   19.196552   22.975198 C.3        1 MOL1         0.1003
      26    H12     13.594348   18.787930   22.977676 H          1 MOL1         0.0783
      27    O7      14.910628   19.735565   24.272954 O.3        1 MOL1        -0.5519
      28    H13     15.495136   20.521621   24.134155 H          1 MOL1         0.3769
      29    C9      15.588652   18.048611   22.629179 C.3        1 MOL1         0.1053
      30    H14     16.612401   18.437911   22.709691 H          1 MOL1         0.0783
      31    O8      15.407589   16.981308   23.565152 O.3        1 MOL1        -0.5519
      32    H15     15.389444   17.421219   24.444612 H          1 MOL1         0.3769
      33    C10     15.370421   17.533104   21.182745 C.3        1 MOL1         0.1018
      34    H16     14.480523   16.889823   21.170017 H          1 MOL1         0.0783
      35    C11     15.218583   18.683364   20.143618 C.3        1 MOL1         0.1043
      36    H17     16.212069   19.124893   19.992102 H          1 MOL1         0.0783
      37    O9      14.314845   19.711128   20.629900 O.3        1 MOL1        -0.3740
      38    C12     14.717543   18.207555   18.759194 C.3        1 MOL1         0.0138
      39    H18     15.521682   17.637548   18.274397 H          1 MOL1         0.0794
      40    H19     14.521837   19.089920   18.135176 H          1 MOL1         0.0794
      41    O10     13.539865   17.397419   18.860135 O.3        1 MOL1        -0.5486
      42    H20     13.232813   17.202716   17.947824 H          1 MOL1         0.3769
      43    C13     18.407818   24.142557   21.531698 C.3        1 MOL1         0.2972
      44    H21     18.808577   25.158837   21.425683 H          1 MOL1         0.0751
      45    O11     19.466371   23.168258   21.639803 O.3        1 MOL1        -0.3740
      46    C14     17.514233   24.060585   22.796070 C.3        1 MOL1         0.1003
      47    H22     16.656776   24.724465   22.627345 H          1 MOL1         0.0783
      48    O12     18.217780   24.519730   23.960251 O.3        1 MOL1        -0.5519
      49    H23     18.914348   23.847222   24.190950 H          1 MOL1         0.3769
      50    C15     16.967882   22.621878   22.965811 C.3        1 MOL1         0.1053
      51    H24     17.818180   21.942163   23.098615 H          1 MOL1         0.0783
      52    O13     16.094552   22.530899   24.098251 O.3        1 MOL1        -0.5519
      53    H25     16.689743   22.573696   24.893329 H          1 MOL1         0.3769
      54    C16     16.225147   22.179400   21.684366 C.3        1 MOL1         0.1018
      55    H26     15.277717   22.729326   21.612962 H          1 MOL1         0.0783
      56    C17     17.074421   22.424393   20.405998 C.3        1 MOL1         0.1043
      57    H27     17.919132   21.730571   20.444422 H          1 MOL1         0.0783
      58    O14     17.586332   23.784551   20.393998 O.3        1 MOL1        -0.3740
      59    C18     16.335613   22.143944   19.071352 C.3        1 MOL1         0.0138
      60    H28     16.484548   21.088981   18.808278 H          1 MOL1         0.0794
      61    H29     16.806270   22.738337   18.276816 H          1 MOL1         0.0794
      62    O15     14.932508   22.424145   19.130433 O.3        1 MOL1        -0.5486
      63    H30     14.509374   21.667753   19.598130 H          1 MOL1         0.3769
      64    C19     23.471297   22.481685   20.700784 C.3        1 MOL1         0.2972
      65    H31     24.483723   22.545509   20.282238 H          1 MOL1         0.0751
      66    O16     23.267706   21.243214   21.406386 O.3        1 MOL1        -0.3740
      67    C20     23.219203   23.646997   21.690304 C.3        1 MOL1         0.1003
      68    H32     23.406482   24.579757   21.142842 H          1 MOL1         0.0783
      69    O17     24.123287   23.565416   22.805395 O.3        1 MOL1        -0.5519
      70    H33     24.076631   22.638639   23.151668 H          1 MOL1         0.3769
      71    C21     21.750063   23.679557   22.187773 C.3        1 MOL1         0.1053
      72    H34     21.604139   22.845718   22.888527 H          1 MOL1         0.0783
      73    O18     21.521849   24.925749   22.854156 O.3        1 MOL1        -0.5519
      74    H35     22.139945   24.932969   23.615868 H          1 MOL1         0.3769
      75    C22     20.726867   23.516689   21.032145 C.3        1 MOL1         0.1018
      76    H36     20.669913   24.463983   20.480390 H          1 MOL1         0.0783
      77    C23     21.119900   22.375990   20.052014 C.3        1 MOL1         0.1043
      78    H37     21.024850   21.419834   20.580826 H          1 MOL1         0.0783
      79    O19     22.493970   22.564854   19.643872 O.3        1 MOL1        -0.3740
      80    C24     20.254315   22.274248   18.768601 C.3        1 MOL1         0.0138
      81    H38     19.429325   21.577718   18.955416 H          1 MOL1         0.0794
      82    H39     20.863947   21.824702   17.973479 H          1 MOL1         0.0794
      83    O20     19.734699   23.535062   18.329507 O.3        1 MOL1        -0.5486
      84    H40     19.026593   23.793586   18.964636 H          1 MOL1         0.3769
      85    C25     25.123720   17.584684   22.021880 C.3        1 MOL1         0.2972
      86    H41     25.834554   16.759165   22.153473 H          1 MOL1         0.0751
      87    O21     23.761235   17.118823   21.983447 O.3        1 MOL1        -0.3740
      88    C26     25.242353   18.586736   23.197315 C.3        1 MOL1         0.1003
      89    H42     26.268537   18.976541   23.196433 H          1 MOL1         0.0783
      90    O22     24.986345   17.930747   24.449936 O.3        1 MOL1        -0.5519
      91    H43     24.298101   17.239076   24.282353 H          1 MOL1         0.3769
      92    C27     24.278265   19.783044   23.003946 C.3        1 MOL1         0.1053
      93    H44     23.249922   19.412660   23.103037 H          1 MOL1         0.0783
      94    O23     24.535345   20.772319   24.007116 O.3        1 MOL1        -0.5519
      95    H45     24.551768   20.276270   24.855215 H          1 MOL1         0.3769
      96    C28     24.433062   20.418886   21.600774 C.3        1 MOL1         0.1018
      97    H46     25.356931   21.012573   21.594674 H          1 MOL1         0.0783
      98    C29     24.472832   19.359123   20.461265 C.3        1 MOL1         0.1043
      99    H47     23.466948   18.934195   20.351077 H          1 MOL1         0.0783
     100    O24     25.400802   18.299678   20.800523 O.3        1 MOL1        -0.3740
     101    C30     24.883759   19.929777   19.082280 C.3        1 MOL1         0.0138
     102    H48     24.053838   20.532948   18.690807 H          1 MOL1         0.0794
     103    H49     25.030268   19.091840   18.387731 H          1 MOL1         0.0794
     104    O25     26.073087   20.726262   19.157476 O.3        1 MOL1        -0.5486
     105    H50     26.317098   20.984180   18.241911 H          1 MOL1         0.3769
     106    C31     21.312911   13.843475   21.493033 C.3        1 MOL1         0.2972
     107    H51     20.855523   12.853689   21.365911 H          1 MOL1         0.0751
     108    O26     20.336805   14.897768   21.397411 O.3        1 MOL1        -0.3740
     109    C32     21.986840   13.936962   22.882121 C.3        1 MOL1         0.1003
     110    H52     22.787080   13.186383   22.918570 H          1 MOL1         0.0783
     111    O27     21.032765   13.669836   23.922582 O.3        1 MOL1        -0.5519
     112    H53     20.136462   13.826078   23.535074 H          1 MOL1         0.3769
     113    C33     22.622676   15.331467   23.073574 C.3        1 MOL1         0.1053
     114    H54     21.807871   16.064158   23.096861 H          1 MOL1         0.0783
     115    O28     23.341656   15.371652   24.310359 O.3        1 MOL1        -0.5519
     116    H55     22.737239   14.957135   24.965909 H          1 MOL1         0.3769
     117    C34     23.564737   15.693716   21.899475 C.3        1 MOL1         0.1018
     118    H56     24.502031   15.134711   22.018136 H          1 MOL1         0.0783
     119    C35     22.942711   15.390268   20.506120 C.3        1 MOL1         0.1043
     120    H57     22.179783   16.152683   20.310513 H          1 MOL1         0.0783
     121    O29     22.318765   14.078461   20.486007 O.3        1 MOL1        -0.3740
     122    C36     23.967491   15.456654   19.349195 C.3        1 MOL1         0.0138
     123    H58     24.281236   16.500585   19.219589 H          1 MOL1         0.0794
     124    H59     23.469339   15.148281   18.420226 H          1 MOL1         0.0794
     125    O30     25.113037   14.632071   19.597507 O.3        1 MOL1        -0.5486
     126    H60     25.707254   14.705771   18.819364 H          1 MOL1         0.3769
     127    C1      19.141809   21.682705   25.342655 C.2        1 MOL1         0.6173
     128    O1      18.141038   21.908727   25.996016 O.co2      1 MOL1        -0.6755
     129    O2      19.932403   22.552089   25.027566 O.co2      1 MOL1        -0.6755
     130    C2      19.295303   20.315292   24.778516 C.2        1 MOL1        -0.1504
     131    H1      18.523894   19.599436   25.052081 H          1 MOL1         0.0814
     132    C3      20.301315   19.956060   23.950014 C.2        1 MOL1        -0.1394
     133    H2      21.071097   20.672150   23.664783 H          1 MOL1         0.0817
     134    C4      20.439446   18.575390   23.346610 C.3        1 MOL1        -0.1849
     135    H3      19.580798   17.945687   23.616022 H          1 MOL1         0.0736
     136    H4      21.325593   18.094106   23.777080 H          1 MOL1         0.0736
     137    C5      20.577367   18.622655   21.809598 C.3        1 MOL1        -0.1866
     138    H5      21.459296   19.214300   21.538601 H          1 MOL1         0.0738
     139    H6      20.749919   17.608075   21.432392 H          1 MOL1         0.0738
     140    C6      19.329571   19.216790   21.126919 C.3        1 MOL1        -0.2879
     141    H7      19.149198   20.238559   21.479624 H          1 MOL1         0.0750
     142    H8      19.452300   19.240613   20.037354 H          1 MOL1         0.0750
     143    H9      18.440421   18.621927   21.359498 H          1 MOL1         0.0750
@<TRIPOS>BOND
    1     1     2    1
    2     1     3    1
    3     1     4    1
    4     4     5    1
    5     4     6    1
    6     6     7    1
    7     4     8    1
    8     8     9    1
    9     8    10    1
   10    10    11    1
   11     8    12    1
   12    12    13    1
   13    12    14    1
   14    14    15    1
   15     1    16    1
   16    14    16    1
   17    14    17    1
   18    17    18    1
   19    17    19    1
   20    17    20    1
   21    20    21    1
   22    22    23    1
   23    22    24    1
   24    22    25    1
   25    25    26    1
   26    25    27    1
   27    27    28    1
   28    25    29    1
   29    29    30    1
   30    29    31    1
   31    31    32    1
   32     3    33    1
   33    29    33    1
   34    33    34    1
   35    33    35    1
   36    35    36    1
   37    22    37    1
   38    35    37    1
   39    35    38    1
   40    38    39    1
   41    38    40    1
   42    38    41    1
   43    41    42    1
   44    43    44    1
   45    43    45    1
   46    43    46    1
   47    46    47    1
   48    46    48    1
   49    48    49    1
   50    46    50    1
   51    50    51    1
   52    50    52    1
   53    52    53    1
   54    24    54    1
   55    50    54    1
   56    54    55    1
   57    54    56    1
   58    56    57    1
   59    43    58    1
   60    56    58    1
   61    56    59    1
   62    59    60    1
   63    59    61    1
   64    59    62    1
   65    62    63    1
   66    64    65    1
   67    64    66    1
   68    64    67    1
   69    67    68    1
   70    67    69    1
   71    69    70    1
   72    67    71    1
   73    71    72    1
   74    71    73    1
   75    73    74    1
   76    45    75    1
   77    71    75    1
   78    75    76    1
   79    75    77    1
   80    77    78    1
   81    64    79    1
   82    77    79    1
   83    77    80    1
   84    80    81    1
   85    80    82    1
   86    80    83    1
   87    83    84    1
   88    85    86    1
   89    85    87    1
   90    85    88    1
   91    88    89    1
   92    88    90    1
   93    90    91    1
   94    88    92    1
   95    92    93    1
   96    92    94    1
   97    94    95    1
   98    66    96    1
   99    92    96    1
  100    96    97    1
  101    96    98    1
  102    98    99    1
  103    85   100    1
  104    98   100    1
  105    98   101    1
  106   101   102    1
  107   101   103    1
  108   101   104    1
  109   104   105    1
  110   106   107    1
  111    12   108    1
  112   106   108    1
  113   106   109    1
  114   109   110    1
  115   109   111    1
  116   111   112    1
  117   109   113    1
  118   113   114    1
  119   113   115    1
  120   115   116    1
  121    87   117    1
  122   113   117    1
  123   117   118    1
  124   117   119    1
  125   119   120    1
  126   106   121    1
  127   119   121    1
  128   119   122    1
  129   122   123    1
  130   122   124    1
  131   122   125    1
  132   125   126    1
  133   127   128    1
  134   127   129    2
  135   127   130    1
  136   130   131    1
  137   130   132    2
  138   132   133    1
  139   132   134    1
  140   134   135    1
  141   134   136    1
  142   134   137    1
  143   137   138    1
  144   137   139    1
  145   137   140    1
  146   140   141    1
  147   140   142    1
  148   140   143    1
@<TRIPOS>SUBSTRUCTURE
       1 MOL1            1 RESIDUE      1      MOL     
       2 MOL1          143 RESIDUE      1      MOL     
@<SCITEGIC>MOL_PROPERTY
feprocess Rank
SciTegic.value.IntegerValue
64

@<SCITEGIC>MOL_PROPERTY
Conf_Id
SciTegic.value.IntegerValue
812

@<SCITEGIC>MOL_PROPERTY
Probability
SciTegic.value.DoubleValue
0.01

@<SCITEGIC>MOL_PROPERTY
G
SciTegic.value.DoubleValue
499.974

@<SCITEGIC>MOL_PROPERTY
E
SciTegic.value.DoubleValue
316.902

@<SCITEGIC>MOL_PROPERTY
-TS
SciTegic.value.DoubleValue
183.073

@<SCITEGIC>MOL_PROPERTY
U+W
SciTegic.value.DoubleValue
190.813

@<SCITEGIC>MOL_PROPERTY
U
SciTegic.value.DoubleValue
270.744

@<SCITEGIC>MOL_PROPERTY
W
SciTegic.value.DoubleValue
-79.931

@<SCITEGIC>MOL_PROPERTY
W(PB)
SciTegic.value.DoubleValue
-85.943

@<SCITEGIC>MOL_PROPERTY
W(SA)
SciTegic.value.DoubleValue
6.012

@<SCITEGIC>MOL_PROPERTY
Valence
SciTegic.value.DoubleValue
150.190

@<SCITEGIC>MOL_PROPERTY
Coulomb
SciTegic.value.DoubleValue
146.125

@<SCITEGIC>MOL_PROPERTY
VdW
SciTegic.value.DoubleValue
-25.571

@<SCITEGIC>MOL_PROPERTY
VdW6
SciTegic.value.DoubleValue
-180.701

@<SCITEGIC>MOL_PROPERTY
VdW12
SciTegic.value.DoubleValue
155.129

@<SCITEGIC>MOL_PROPERTY
Bond
SciTegic.value.DoubleValue
4.830

@<SCITEGIC>MOL_PROPERTY
Angle
SciTegic.value.DoubleValue
13.574

@<SCITEGIC>MOL_PROPERTY
Pdih
SciTegic.value.DoubleValue
131.746

@<SCITEGIC>MOL_PROPERTY
Idih
SciTegic.value.DoubleValue
0.040

@<SCITEGIC>MOL_PROPERTY
Tether
SciTegic.value.DoubleValue
0.000

@<TRIPOS>MOLECULE
CD_guest-s19_fast_vm2_rndm.mol2 : feprocess host+ligand conformer 65
         143         148           2
SMALL
USER_CHARGES
 
@<TRIPOS>ATOM
       1    C1      16.058202   15.110824   21.690689 C.3        1 MOL1         0.2972
       2    H1      14.970017   14.978514   21.748820 H          1 MOL1         0.0751
       3    O1      16.416945   16.498832   21.553523 O.3        1 MOL1        -0.3740
       4    C2      16.722475   14.573809   22.980084 C.3        1 MOL1         0.1003
       5    H2      16.511908   13.498294   23.043618 H          1 MOL1         0.0783
       6    O2      16.178204   15.237711   24.131470 O.3        1 MOL1        -0.5519
       7    H3      15.875102   16.125793   23.825274 H          1 MOL1         0.3769
       8    C3      18.255224   14.763496   22.919084 C.3        1 MOL1         0.1053
       9    H4      18.460190   15.840992   22.950916 H          1 MOL1         0.0783
      10    O3      18.866378   14.127270   24.046633 O.3        1 MOL1        -0.5519
      11    H5      18.334769   14.418380   24.820589 H          1 MOL1         0.3769
      12    C4      18.853973   14.193420   21.609389 C.3        1 MOL1         0.1018
      13    H6      18.932760   13.102675   21.708380 H          1 MOL1         0.0783
      14    C5      18.030252   14.565927   20.342118 C.3        1 MOL1         0.1043
      15    H7      18.226869   15.622141   20.124982 H          1 MOL1         0.0783
      16    O4      16.607094   14.389299   20.568755 O.3        1 MOL1        -0.3740
      17    C6      18.426236   13.760531   19.081578 C.3        1 MOL1         0.0138
      18    H8      19.416977   14.097057   18.747991 H          1 MOL1         0.0794
      19    H9      17.716025   13.995686   18.277427 H          1 MOL1         0.0794
      20    O5      18.449232   12.349333   19.328888 O.3        1 MOL1        -0.5486
      21    H10     18.634481   11.900182   18.475403 H          1 MOL1         0.3769
      22    C7      14.947380   20.210511   20.433548 C.3        1 MOL1         0.2972
      23    H11     14.381813   21.052724   20.016749 H          1 MOL1         0.0751
      24    O6      16.236816   20.630447   20.931776 O.3        1 MOL1        -0.3740
      25    C8      14.151466   19.504213   21.563460 C.3        1 MOL1         0.1003
      26    H12     13.239644   19.096532   21.107796 H          1 MOL1         0.0783
      27    O7      13.774609   20.416287   22.604476 O.3        1 MOL1        -0.5519
      28    H13     14.612270   20.765198   23.001596 H          1 MOL1         0.3769
      29    C9      14.967071   18.316763   22.131319 C.3        1 MOL1         0.1053
      30    H14     15.867203   18.718518   22.617085 H          1 MOL1         0.0783
      31    O8      14.179741   17.600842   23.088783 O.3        1 MOL1        -0.5519
      32    H15     13.760800   18.292425   23.647678 H          1 MOL1         0.3769
      33    C10     15.410402   17.360906   20.994314 C.3        1 MOL1         0.1018
      34    H16     14.531547   16.800775   20.649070 H          1 MOL1         0.0783
      35    C11     16.041183   18.118194   19.789904 C.3        1 MOL1         0.1043
      36    H17     17.009574   18.518574   20.108246 H          1 MOL1         0.0783
      37    O9      15.178714   19.219407   19.408334 O.3        1 MOL1        -0.3740
      38    C12     16.313821   17.246723   18.535408 C.3        1 MOL1         0.0138
      39    H18     17.343384   16.872722   18.588187 H          1 MOL1         0.0794
      40    H19     16.260951   17.889389   17.646485 H          1 MOL1         0.0794
      41    O10     15.408405   16.144825   18.396572 O.3        1 MOL1        -0.5486
      42    H20     15.658817   15.476088   19.076290 H          1 MOL1         0.3769
      43    C13     18.587112   23.860408   22.067044 C.3        1 MOL1         0.2972
      44    H21     18.961382   24.846479   22.371182 H          1 MOL1         0.0751
      45    O11     19.679135   22.946996   21.830753 O.3        1 MOL1        -0.3740
      46    C14     17.644815   23.306983   23.166226 C.3        1 MOL1         0.1003
      47    H22     16.795561   24.000294   23.223313 H          1 MOL1         0.0783
      48    O12     18.268523   23.268036   24.459389 O.3        1 MOL1        -0.5519
      49    H23     19.136408   22.785414   24.396564 H          1 MOL1         0.3769
      50    C15     17.074967   21.926578   22.773216 C.3        1 MOL1         0.1053
      51    H24     17.901684   21.210722   22.709037 H          1 MOL1         0.0783
      52    O13     16.145419   21.509492   23.776916 O.3        1 MOL1        -0.5519
      53    H25     16.595367   21.708041   24.629374 H          1 MOL1         0.3769
      54    C16     16.385753   21.990824   21.387434 C.3        1 MOL1         0.1018
      55    H26     15.420223   22.502073   21.491709 H          1 MOL1         0.0783
      56    C17     17.273724   22.712814   20.334500 C.3        1 MOL1         0.1043
      57    H27     18.104466   22.034618   20.107701 H          1 MOL1         0.0783
      58    O14     17.811500   23.960729   20.851899 O.3        1 MOL1        -0.3740
      59    C18     16.540512   23.011356   19.003777 C.3        1 MOL1         0.0138
      60    H28     16.269360   22.059518   18.527180 H          1 MOL1         0.0794
      61    H29     17.238811   23.521294   18.327130 H          1 MOL1         0.0794
      62    O15     15.371260   23.819138   19.191931 O.3        1 MOL1        -0.5486
      63    H30     14.712136   23.298654   19.694524 H          1 MOL1         0.3769
      64    C19     23.660786   22.798990   20.652600 C.3        1 MOL1         0.2972
      65    H31     24.672042   22.948871   20.253259 H          1 MOL1         0.0751
      66    O16     23.427863   21.418098   21.010400 O.3        1 MOL1        -0.3740
      67    C20     23.386249   23.720357   21.868712 C.3        1 MOL1         0.1003
      68    H32     23.387949   24.753827   21.499185 H          1 MOL1         0.0783
      69    O17     24.415554   23.594115   22.859925 O.3        1 MOL1        -0.5519
      70    H33     24.301905   22.705876   23.279560 H          1 MOL1         0.3769
      71    C21     21.970119   23.424463   22.432218 C.3        1 MOL1         0.1053
      72    H34     21.959583   22.388900   22.797832 H          1 MOL1         0.0783
      73    O18     21.653038   24.315469   23.506880 O.3        1 MOL1        -0.5519
      74    H35     21.296693   23.727049   24.223551 H          1 MOL1         0.3769
      75    C22     20.891973   23.552553   21.320364 C.3        1 MOL1         0.1018
      76    H36     20.754074   24.621533   21.112701 H          1 MOL1         0.0783
      77    C23     21.302686   22.831773   19.997207 C.3        1 MOL1         0.1043
      78    H37     21.229053   21.750814   20.157630 H          1 MOL1         0.0783
      79    O19     22.675915   23.157009   19.660496 O.3        1 MOL1        -0.3740
      80    C24     20.427100   23.161861   18.760086 C.3        1 MOL1         0.0138
      81    H38     19.614857   22.429308   18.697407 H          1 MOL1         0.0794
      82    H39     21.036550   23.022085   17.857243 H          1 MOL1         0.0794
      83    O20     19.888186   24.489257   18.779979 O.3        1 MOL1        -0.5486
      84    H40     19.176848   24.505054   19.463095 H          1 MOL1         0.3769
      85    C25     24.934585   17.739658   21.967153 C.3        1 MOL1         0.2972
      86    H41     25.516509   16.844604   22.222940 H          1 MOL1         0.0751
      87    O21     23.571116   17.410993   21.641098 O.3        1 MOL1        -0.3740
      88    C26     24.919639   18.719568   23.162195 C.3        1 MOL1         0.1003
      89    H42     25.957120   19.021048   23.356023 H          1 MOL1         0.0783
      90    O22     24.387866   18.070867   24.329157 O.3        1 MOL1        -0.5519
      91    H43     24.026595   17.201068   24.032735 H          1 MOL1         0.3769
      92    C27     24.106821   19.990908   22.819450 C.3        1 MOL1         0.1053
      93    H44     23.051411   19.703719   22.728439 H          1 MOL1         0.0783
      94    O23     24.264551   20.946345   23.874115 O.3        1 MOL1        -0.5519
      95    H45     23.867121   20.546434   24.684127 H          1 MOL1         0.3769
      96    C28     24.539981   20.621598   21.466525 C.3        1 MOL1         0.1018
      97    H46     25.445323   21.222925   21.622499 H          1 MOL1         0.0783
      98    C29     24.776010   19.567730   20.345763 C.3        1 MOL1         0.1043
      99    H47     23.790349   19.230155   20.002648 H          1 MOL1         0.0783
     100    O24     25.515356   18.420320   20.836433 O.3        1 MOL1        -0.3740
     101    C30     25.512321   20.138851   19.110761 C.3        1 MOL1         0.0138
     102    H48     24.839436   20.839811   18.598410 H          1 MOL1         0.0794
     103    H49     25.718765   19.315863   18.413318 H          1 MOL1         0.0794
     104    O25     26.728625   20.806759   19.468391 O.3        1 MOL1        -0.5486
     105    H50     27.174310   21.080091   18.636968 H          1 MOL1         0.3769
     106    C31     21.227969   13.998227   21.012415 C.3        1 MOL1         0.2972
     107    H51     20.882006   13.003269   20.703720 H          1 MOL1         0.0751
     108    O26     20.142208   14.820637   21.475802 O.3        1 MOL1        -0.3740
     109    C32     22.254371   13.895574   22.172655 C.3        1 MOL1         0.1003
     110    H52     23.095122   13.287209   21.814907 H          1 MOL1         0.0783
     111    O27     21.668525   13.262886   23.322389 O.3        1 MOL1        -0.5519
     112    H53     20.791875   13.695910   23.482924 H          1 MOL1         0.3769
     113    C33     22.802657   15.295537   22.551449 C.3        1 MOL1         0.1053
     114    H54     21.978588   15.878053   22.984003 H          1 MOL1         0.0783
     115    O28     23.851278   15.155484   23.515286 O.3        1 MOL1        -0.5519
     116    H55     23.517608   14.492960   24.161114 H          1 MOL1         0.3769
     117    C34     23.319927   16.039247   21.293502 C.3        1 MOL1         0.1018
     118    H56     24.228607   15.540307   20.931414 H          1 MOL1         0.0783
     119    C35     22.262490   16.044063   20.159710 C.3        1 MOL1         0.1043
     120    H57     21.394214   16.625950   20.495223 H          1 MOL1         0.0783
     121    O29     21.858947   14.677348   19.902066 O.3        1 MOL1        -0.3740
     122    C36     22.751114   16.688637   18.836382 C.3        1 MOL1         0.0138
     123    H58     22.530970   17.763076   18.876467 H          1 MOL1         0.0794
     124    H59     22.163462   16.275524   18.005854 H          1 MOL1         0.0794
     125    O30     24.151627   16.495893   18.596247 O.3        1 MOL1        -0.5486
     126    H60     24.638457   16.997784   19.289398 H          1 MOL1         0.3769
     127    C1      21.405703   21.165240   25.401053 C.2        1 MOL1         0.6173
     128    O1      20.752124   22.131253   25.047429 O.co2      1 MOL1        -0.6755
     129    O2      22.266484   21.214309   26.257841 O.co2      1 MOL1        -0.6755
     130    C2      21.211376   19.858511   24.719258 C.2        1 MOL1        -0.1504
     131    H1      21.808628   19.031240   25.095327 H          1 MOL1         0.0814
     132    C3      20.381079   19.676494   23.670354 C.2        1 MOL1        -0.1394
     133    H2      19.803979   20.508745   23.280106 H          1 MOL1         0.0817
     134    C4      20.228421   18.350574   22.957162 C.3        1 MOL1        -0.1849
     135    H3      19.863477   17.597968   23.667727 H          1 MOL1         0.0736
     136    H4      21.212097   18.006917   22.620784 H          1 MOL1         0.0736
     137    C5      19.272568   18.409804   21.746326 C.3        1 MOL1        -0.1866
     138    H5      19.156573   17.399822   21.336936 H          1 MOL1         0.0738
     139    H6      18.277532   18.732480   22.079796 H          1 MOL1         0.0738
     140    C6      19.780554   19.342710   20.628688 C.3        1 MOL1        -0.2879
     141    H7      20.819129   19.110499   20.360847 H          1 MOL1         0.0750
     142    H8      19.163872   19.249761   19.726808 H          1 MOL1         0.0750
     143    H9      19.734512   20.385031   20.958777 H          1 MOL1         0.0750
@<TRIPOS>BOND
    1     1     2    1
    2     1     3    1
    3     1     4    1
    4     4     5    1
    5     4     6    1
    6     6     7    1
    7     4     8    1
    8     8     9    1
    9     8    10    1
   10    10    11    1
   11     8    12    1
   12    12    13    1
   13    12    14    1
   14    14    15    1
   15     1    16    1
   16    14    16    1
   17    14    17    1
   18    17    18    1
   19    17    19    1
   20    17    20    1
   21    20    21    1
   22    22    23    1
   23    22    24    1
   24    22    25    1
   25    25    26    1
   26    25    27    1
   27    27    28    1
   28    25    29    1
   29    29    30    1
   30    29    31    1
   31    31    32    1
   32     3    33    1
   33    29    33    1
   34    33    34    1
   35    33    35    1
   36    35    36    1
   37    22    37    1
   38    35    37    1
   39    35    38    1
   40    38    39    1
   41    38    40    1
   42    38    41    1
   43    41    42    1
   44    43    44    1
   45    43    45    1
   46    43    46    1
   47    46    47    1
   48    46    48    1
   49    48    49    1
   50    46    50    1
   51    50    51    1
   52    50    52    1
   53    52    53    1
   54    24    54    1
   55    50    54    1
   56    54    55    1
   57    54    56    1
   58    56    57    1
   59    43    58    1
   60    56    58    1
   61    56    59    1
   62    59    60    1
   63    59    61    1
   64    59    62    1
   65    62    63    1
   66    64    65    1
   67    64    66    1
   68    64    67    1
   69    67    68    1
   70    67    69    1
   71    69    70    1
   72    67    71    1
   73    71    72    1
   74    71    73    1
   75    73    74    1
   76    45    75    1
   77    71    75    1
   78    75    76    1
   79    75    77    1
   80    77    78    1
   81    64    79    1
   82    77    79    1
   83    77    80    1
   84    80    81    1
   85    80    82    1
   86    80    83    1
   87    83    84    1
   88    85    86    1
   89    85    87    1
   90    85    88    1
   91    88    89    1
   92    88    90    1
   93    90    91    1
   94    88    92    1
   95    92    93    1
   96    92    94    1
   97    94    95    1
   98    66    96    1
   99    92    96    1
  100    96    97    1
  101    96    98    1
  102    98    99    1
  103    85   100    1
  104    98   100    1
  105    98   101    1
  106   101   102    1
  107   101   103    1
  108   101   104    1
  109   104   105    1
  110   106   107    1
  111    12   108    1
  112   106   108    1
  113   106   109    1
  114   109   110    1
  115   109   111    1
  116   111   112    1
  117   109   113    1
  118   113   114    1
  119   113   115    1
  120   115   116    1
  121    87   117    1
  122   113   117    1
  123   117   118    1
  124   117   119    1
  125   119   120    1
  126   106   121    1
  127   119   121    1
  128   119   122    1
  129   122   123    1
  130   122   124    1
  131   122   125    1
  132   125   126    1
  133   127   128    1
  134   127   129    2
  135   127   130    1
  136   130   131    1
  137   130   132    2
  138   132   133    1
  139   132   134    1
  140   134   135    1
  141   134   136    1
  142   134   137    1
  143   137   138    1
  144   137   139    1
  145   137   140    1
  146   140   141    1
  147   140   142    1
  148   140   143    1
@<TRIPOS>SUBSTRUCTURE
       1 MOL1            1 RESIDUE      1      MOL     
       2 MOL1          143 RESIDUE      1      MOL     
@<SCITEGIC>MOL_PROPERTY
feprocess Rank
SciTegic.value.IntegerValue
65

@<SCITEGIC>MOL_PROPERTY
Conf_Id
SciTegic.value.IntegerValue
939

@<SCITEGIC>MOL_PROPERTY
Probability
SciTegic.value.DoubleValue
0.01

@<SCITEGIC>MOL_PROPERTY
G
SciTegic.value.DoubleValue
500.019

@<SCITEGIC>MOL_PROPERTY
E
SciTegic.value.DoubleValue
316.836

@<SCITEGIC>MOL_PROPERTY
-TS
SciTegic.value.DoubleValue
183.183

@<SCITEGIC>MOL_PROPERTY
U+W
SciTegic.value.DoubleValue
190.748

@<SCITEGIC>MOL_PROPERTY
U
SciTegic.value.DoubleValue
270.427

@<SCITEGIC>MOL_PROPERTY
W
SciTegic.value.DoubleValue
-79.679

@<SCITEGIC>MOL_PROPERTY
W(PB)
SciTegic.value.DoubleValue
-85.740

@<SCITEGIC>MOL_PROPERTY
W(SA)
SciTegic.value.DoubleValue
6.061

@<SCITEGIC>MOL_PROPERTY
Valence
SciTegic.value.DoubleValue
151.263

@<SCITEGIC>MOL_PROPERTY
Coulomb
SciTegic.value.DoubleValue
143.444

@<SCITEGIC>MOL_PROPERTY
VdW
SciTegic.value.DoubleValue
-24.281

@<SCITEGIC>MOL_PROPERTY
VdW6
SciTegic.value.DoubleValue
-183.840

@<SCITEGIC>MOL_PROPERTY
VdW12
SciTegic.value.DoubleValue
159.559

@<SCITEGIC>MOL_PROPERTY
Bond
SciTegic.value.DoubleValue
5.111

@<SCITEGIC>MOL_PROPERTY
Angle
SciTegic.value.DoubleValue
15.520

@<SCITEGIC>MOL_PROPERTY
Pdih
SciTegic.value.DoubleValue
130.620

@<SCITEGIC>MOL_PROPERTY
Idih
SciTegic.value.DoubleValue
0.012

@<SCITEGIC>MOL_PROPERTY
Tether
SciTegic.value.DoubleValue
0.000

@<TRIPOS>MOLECULE
CD_guest-s19_fast_vm2_rndm.mol2 : feprocess host+ligand conformer 66
         143         148           2
SMALL
USER_CHARGES
 
@<TRIPOS>ATOM
       1    C1      16.444326   15.250710   21.833533 C.3        1 MOL1         0.2972
       2    H1      15.389803   15.172496   22.128520 H          1 MOL1         0.0751
       3    O1      16.802222   16.602797   21.492358 O.3        1 MOL1        -0.3740
       4    C2      17.352825   14.783532   22.992550 C.3        1 MOL1         0.1003
       5    H2      17.118419   13.728914   23.187440 H          1 MOL1         0.0783
       6    O2      17.104368   15.549697   24.182644 O.3        1 MOL1        -0.5519
       7    H3      16.456155   16.255706   23.940044 H          1 MOL1         0.3769
       8    C3      18.842208   14.878610   22.592167 C.3        1 MOL1         0.1053
       9    H4      19.095732   15.940406   22.477175 H          1 MOL1         0.0783
      10    O3      19.622260   14.313104   23.647968 O.3        1 MOL1        -0.5519
      11    H5      19.246406   14.709276   24.466936 H          1 MOL1         0.3769
      12    C4      19.127760   14.161873   21.241977 C.3        1 MOL1         0.1018
      13    H6      19.176712   13.079229   21.413093 H          1 MOL1         0.0783
      14    C5      18.061531   14.489073   20.154950 C.3        1 MOL1         0.1043
      15    H7      18.246347   15.514704   19.810975 H          1 MOL1         0.0783
      16    O4      16.715979   14.413114   20.691370 O.3        1 MOL1        -0.3740
      17    C6      18.143792   13.572931   18.909903 C.3        1 MOL1         0.0138
      18    H8      19.099378   13.755043   18.399701 H          1 MOL1         0.0794
      19    H9      17.346322   13.863608   18.213081 H          1 MOL1         0.0794
      20    O5      18.019306   12.183158   19.239970 O.3        1 MOL1        -0.5486
      21    H10     18.818156   11.910975   19.736805 H          1 MOL1         0.3769
      22    C7      14.856975   20.292092   21.069304 C.3        1 MOL1         0.2972
      23    H11     14.108668   21.059122   20.834296 H          1 MOL1         0.0751
      24    O6      16.106380   20.872724   21.484608 O.3        1 MOL1        -0.3740
      25    C8      14.358799   19.400473   22.236146 C.3        1 MOL1         0.1003
      26    H12     13.414742   18.938925   21.918770 H          1 MOL1         0.0783
      27    O7      14.125392   20.187953   23.414759 O.3        1 MOL1        -0.5519
      28    H13     14.834389   20.879110   23.450638 H          1 MOL1         0.3769
      29    C9      15.368397   18.264937   22.534732 C.3        1 MOL1         0.1053
      30    H14     16.294321   18.717599   22.913622 H          1 MOL1         0.0783
      31    O8      14.815471   17.387058   23.520761 O.3        1 MOL1        -0.5519
      32    H15     14.420499   17.984175   24.195698 H          1 MOL1         0.3769
      33    C10     15.699973   17.489003   21.235715 C.3        1 MOL1         0.1018
      34    H16     14.807223   16.938316   20.910818 H          1 MOL1         0.0783
      35    C11     16.135970   18.448314   20.098700 C.3        1 MOL1         0.1043
      36    H17     17.072460   18.935314   20.396355 H          1 MOL1         0.0783
      37    O9      15.106577   19.452883   19.917879 O.3        1 MOL1        -0.3740
      38    C12     16.407950   17.741181   18.745752 C.3        1 MOL1         0.0138
      39    H18     17.452527   17.403416   18.739907 H          1 MOL1         0.0794
      40    H19     16.305396   18.476346   17.936632 H          1 MOL1         0.0794
      41    O10     15.544025   16.621390   18.511062 O.3        1 MOL1        -0.5486
      42    H20     15.778843   15.929302   19.170346 H          1 MOL1         0.3769
      43    C13     18.364156   24.343904   21.425974 C.3        1 MOL1         0.2972
      44    H21     18.735171   25.373091   21.341100 H          1 MOL1         0.0751
      45    O11     19.436207   23.425252   21.737655 O.3        1 MOL1        -0.3740
      46    C14     17.290375   24.270841   22.540590 C.3        1 MOL1         0.1003
      47    H22     16.439495   24.876364   22.202844 H          1 MOL1         0.0783
      48    O12     17.773787   24.832100   23.772333 O.3        1 MOL1        -0.5519
      49    H23     18.367759   24.174296   24.216444 H          1 MOL1         0.3769
      50    C15     16.793331   22.811607   22.688271 C.3        1 MOL1         0.1053
      51    H24     17.647018   22.178601   22.952867 H          1 MOL1         0.0783
      52    O13     15.788701   22.705669   23.703340 O.3        1 MOL1        -0.5519
      53    H25     16.294120   22.745841   24.558270 H          1 MOL1         0.3769
      54    C16     16.247635   22.297260   21.336768 C.3        1 MOL1         0.1018
      55    H26     15.289890   22.794696   21.136937 H          1 MOL1         0.0783
      56    C17     17.245534   22.554694   20.171163 C.3        1 MOL1         0.1043
      57    H27     18.099837   21.880492   20.312692 H          1 MOL1         0.0783
      58    O14     17.725457   23.926257   20.198220 O.3        1 MOL1        -0.3740
      59    C18     16.661531   22.266787   18.764969 C.3        1 MOL1         0.0138
      60    H28     16.624760   21.179928   18.614184 H          1 MOL1         0.0794
      61    H29     17.348550   22.671887   18.010813 H          1 MOL1         0.0794
      62    O15     15.356976   22.828316   18.580417 O.3        1 MOL1        -0.5486
      63    H30     14.703796   22.129049   18.795793 H          1 MOL1         0.3769
      64    C19     23.439781   22.603398   20.880453 C.3        1 MOL1         0.2972
      65    H31     24.484285   22.638321   20.545928 H          1 MOL1         0.0751
      66    O16     23.057824   21.267251   21.272387 O.3        1 MOL1        -0.3740
      67    C20     23.200671   23.589350   22.053969 C.3        1 MOL1         0.1003
      68    H32     23.431016   24.596234   21.683084 H          1 MOL1         0.0783
      69    O17     24.072569   23.292664   23.156220 O.3        1 MOL1        -0.5519
      70    H33     23.781207   22.421690   23.524506 H          1 MOL1         0.3769
      71    C21     21.709587   23.574148   22.483504 C.3        1 MOL1         0.1053
      72    H34     21.500308   22.589790   22.918321 H          1 MOL1         0.0783
      73    O18     21.466390   24.598768   23.455812 O.3        1 MOL1        -0.5519
      74    H35     20.812177   24.224687   24.102933 H          1 MOL1         0.3769
      75    C22     20.758538   23.779283   21.271115 C.3        1 MOL1         0.1018
      76    H36     20.814783   24.835128   20.976170 H          1 MOL1         0.0783
      77    C23     21.149830   22.876621   20.059065 C.3        1 MOL1         0.1043
      78    H37     20.919156   21.834915   20.317004 H          1 MOL1         0.0783
      79    O19     22.569839   23.006200   19.805670 O.3        1 MOL1        -0.3740
      80    C24     20.431214   23.180553   18.719798 C.3        1 MOL1         0.0138
      81    H38     19.529802   22.562455   18.657927 H          1 MOL1         0.0794
      82    H39     21.082322   22.858795   17.895947 H          1 MOL1         0.0794
      83    O20     20.088872   24.560664   18.555851 O.3        1 MOL1        -0.5486
      84    H40     19.226612   24.688387   19.014800 H          1 MOL1         0.3769
      85    C25     24.708710   17.570172   22.262492 C.3        1 MOL1         0.2972
      86    H41     25.378634   16.759275   22.577121 H          1 MOL1         0.0751
      87    O21     23.442692   17.055056   21.815723 O.3        1 MOL1        -0.3740
      88    C26     24.442530   18.522600   23.454287 C.3        1 MOL1         0.1003
      89    H42     25.409482   18.930554   23.776301 H          1 MOL1         0.0783
      90    O22     23.844445   17.802109   24.542135 O.3        1 MOL1        -0.5519
      91    H43     23.271246   17.115891   24.131527 H          1 MOL1         0.3769
      92    C27     23.539708   19.705174   23.033428 C.3        1 MOL1         0.1053
      93    H44     22.544830   19.310043   22.787132 H          1 MOL1         0.0783
      94    O23     23.441329   20.625396   24.125307 O.3        1 MOL1        -0.5519
      95    H45     23.226996   20.068187   24.906059 H          1 MOL1         0.3769
      96    C28     24.105743   20.416147   21.779846 C.3        1 MOL1         0.1018
      97    H46     24.997124   20.988411   22.069669 H          1 MOL1         0.0783
      98    C29     24.467669   19.406394   20.655036 C.3        1 MOL1         0.1043
      99    H47     23.526263   18.992231   20.273509 H          1 MOL1         0.0783
     100    O24     25.287944   18.328509   21.179084 O.3        1 MOL1        -0.3740
     101    C30     25.212961   20.045396   19.458709 C.3        1 MOL1         0.0138
     102    H48     24.508818   20.685765   18.910375 H          1 MOL1         0.0794
     103    H49     25.527966   19.247106   18.773362 H          1 MOL1         0.0794
     104    O25     26.345368   20.816056   19.879458 O.3        1 MOL1        -0.5486
     105    H50     26.818245   21.116266   19.072862 H          1 MOL1         0.3769
     106    C31     21.443190   13.784467   20.389235 C.3        1 MOL1         0.2972
     107    H51     21.061042   12.863367   19.932394 H          1 MOL1         0.0751
     108    O26     20.370981   14.692274   20.737130 O.3        1 MOL1        -0.3740
     109    C32     22.322109   13.478286   21.628846 C.3        1 MOL1         0.1003
     110    H52     23.213781   12.950018   21.266469 H          1 MOL1         0.0783
     111    O27     21.649822   12.637447   22.576546 O.3        1 MOL1        -0.5519
     112    H53     20.918486   13.177812   22.967344 H          1 MOL1         0.3769
     113    C33     22.789841   14.801961   22.280083 C.3        1 MOL1         0.1053
     114    H54     21.906964   15.321331   22.676568 H          1 MOL1         0.0783
     115    O28     23.700121   14.516476   23.346532 O.3        1 MOL1        -0.5519
     116    H55     23.280030   13.793489   23.862322 H          1 MOL1         0.3769
     117    C34     23.470117   15.734538   21.242672 C.3        1 MOL1         0.1018
     118    H56     24.494570   15.374571   21.082700 H          1 MOL1         0.0783
     119    C35     22.726055   15.802034   19.872718 C.3        1 MOL1         0.1043
     120    H57     21.830879   16.419752   19.998301 H          1 MOL1         0.0783
     121    O29     22.310863   14.474003   19.462057 O.3        1 MOL1        -0.3740
     122    C36     23.535782   16.453300   18.719382 C.3        1 MOL1         0.0138
     123    H58     23.279628   17.518814   18.674178 H          1 MOL1         0.0794
     124    H59     23.205353   16.013102   17.769064 H          1 MOL1         0.0794
     125    O30     24.954727   16.308012   18.857943 O.3        1 MOL1        -0.5486
     126    H60     25.236264   16.889701   19.602350 H          1 MOL1         0.3769
     127    C1      19.010917   22.312241   25.280495 C.2        1 MOL1         0.6173
     128    O1      17.847639   22.341021   25.636957 O.co2      1 MOL1        -0.6755
     129    O2      19.720237   23.299966   25.287768 O.co2      1 MOL1        -0.6755
     130    C2      19.532915   21.116919   24.570073 C.2        1 MOL1        -0.1504
     131    H1      20.572815   21.166509   24.262119 H          1 MOL1         0.0814
     132    C3      18.777951   20.049326   24.228808 C.2        1 MOL1        -0.1394
     133    H2      17.724705   19.995518   24.502575 H          1 MOL1         0.0817
     134    C4      19.295935   18.923339   23.363700 C.3        1 MOL1        -0.1849
     135    H3      18.542233   18.128649   23.297599 H          1 MOL1         0.0736
     136    H4      20.189164   18.475801   23.819487 H          1 MOL1         0.0736
     137    C5      19.631718   19.446576   21.950152 C.3        1 MOL1        -0.1866
     138    H5      18.758137   19.958513   21.529501 H          1 MOL1         0.0738
     139    H6      20.431568   20.195639   22.017291 H          1 MOL1         0.0738
     140    C6      20.076017   18.315050   21.008998 C.3        1 MOL1        -0.2879
     141    H7      19.255959   17.611976   20.822737 H          1 MOL1         0.0750
     142    H8      20.906182   17.760122   21.459114 H          1 MOL1         0.0750
     143    H9      20.409570   18.717557   20.044458 H          1 MOL1         0.0750
@<TRIPOS>BOND
    1     1     2    1
    2     1     3    1
    3     1     4    1
    4     4     5    1
    5     4     6    1
    6     6     7    1
    7     4     8    1
    8     8     9    1
    9     8    10    1
   10    10    11    1
   11     8    12    1
   12    12    13    1
   13    12    14    1
   14    14    15    1
   15     1    16    1
   16    14    16    1
   17    14    17    1
   18    17    18    1
   19    17    19    1
   20    17    20    1
   21    20    21    1
   22    22    23    1
   23    22    24    1
   24    22    25    1
   25    25    26    1
   26    25    27    1
   27    27    28    1
   28    25    29    1
   29    29    30    1
   30    29    31    1
   31    31    32    1
   32     3    33    1
   33    29    33    1
   34    33    34    1
   35    33    35    1
   36    35    36    1
   37    22    37    1
   38    35    37    1
   39    35    38    1
   40    38    39    1
   41    38    40    1
   42    38    41    1
   43    41    42    1
   44    43    44    1
   45    43    45    1
   46    43    46    1
   47    46    47    1
   48    46    48    1
   49    48    49    1
   50    46    50    1
   51    50    51    1
   52    50    52    1
   53    52    53    1
   54    24    54    1
   55    50    54    1
   56    54    55    1
   57    54    56    1
   58    56    57    1
   59    43    58    1
   60    56    58    1
   61    56    59    1
   62    59    60    1
   63    59    61    1
   64    59    62    1
   65    62    63    1
   66    64    65    1
   67    64    66    1
   68    64    67    1
   69    67    68    1
   70    67    69    1
   71    69    70    1
   72    67    71    1
   73    71    72    1
   74    71    73    1
   75    73    74    1
   76    45    75    1
   77    71    75    1
   78    75    76    1
   79    75    77    1
   80    77    78    1
   81    64    79    1
   82    77    79    1
   83    77    80    1
   84    80    81    1
   85    80    82    1
   86    80    83    1
   87    83    84    1
   88    85    86    1
   89    85    87    1
   90    85    88    1
   91    88    89    1
   92    88    90    1
   93    90    91    1
   94    88    92    1
   95    92    93    1
   96    92    94    1
   97    94    95    1
   98    66    96    1
   99    92    96    1
  100    96    97    1
  101    96    98    1
  102    98    99    1
  103    85   100    1
  104    98   100    1
  105    98   101    1
  106   101   102    1
  107   101   103    1
  108   101   104    1
  109   104   105    1
  110   106   107    1
  111    12   108    1
  112   106   108    1
  113   106   109    1
  114   109   110    1
  115   109   111    1
  116   111   112    1
  117   109   113    1
  118   113   114    1
  119   113   115    1
  120   115   116    1
  121    87   117    1
  122   113   117    1
  123   117   118    1
  124   117   119    1
  125   119   120    1
  126   106   121    1
  127   119   121    1
  128   119   122    1
  129   122   123    1
  130   122   124    1
  131   122   125    1
  132   125   126    1
  133   127   128    1
  134   127   129    2
  135   127   130    1
  136   130   131    1
  137   130   132    2
  138   132   133    1
  139   132   134    1
  140   134   135    1
  141   134   136    1
  142   134   137    1
  143   137   138    1
  144   137   139    1
  145   137   140    1
  146   140   141    1
  147   140   142    1
  148   140   143    1
@<TRIPOS>SUBSTRUCTURE
       1 MOL1            1 RESIDUE      1      MOL     
       2 MOL1          143 RESIDUE      1      MOL     
@<SCITEGIC>MOL_PROPERTY
feprocess Rank
SciTegic.value.IntegerValue
66

@<SCITEGIC>MOL_PROPERTY
Conf_Id
SciTegic.value.IntegerValue
634

@<SCITEGIC>MOL_PROPERTY
Probability
SciTegic.value.DoubleValue
0.01

@<SCITEGIC>MOL_PROPERTY
G
SciTegic.value.DoubleValue
500.027

@<SCITEGIC>MOL_PROPERTY
E
SciTegic.value.DoubleValue
316.985

@<SCITEGIC>MOL_PROPERTY
-TS
SciTegic.value.DoubleValue
183.042

@<SCITEGIC>MOL_PROPERTY
U+W
SciTegic.value.DoubleValue
190.897

@<SCITEGIC>MOL_PROPERTY
U
SciTegic.value.DoubleValue
268.934

@<SCITEGIC>MOL_PROPERTY
W
SciTegic.value.DoubleValue
-78.037

@<SCITEGIC>MOL_PROPERTY
W(PB)
SciTegic.value.DoubleValue
-84.051

@<SCITEGIC>MOL_PROPERTY
W(SA)
SciTegic.value.DoubleValue
6.014

@<SCITEGIC>MOL_PROPERTY
Valence
SciTegic.value.DoubleValue
152.757

@<SCITEGIC>MOL_PROPERTY
Coulomb
SciTegic.value.DoubleValue
140.836

@<SCITEGIC>MOL_PROPERTY
VdW
SciTegic.value.DoubleValue
-24.660

@<SCITEGIC>MOL_PROPERTY
VdW6
SciTegic.value.DoubleValue
-184.458

@<SCITEGIC>MOL_PROPERTY
VdW12
SciTegic.value.DoubleValue
159.798

@<SCITEGIC>MOL_PROPERTY
Bond
SciTegic.value.DoubleValue
5.120

@<SCITEGIC>MOL_PROPERTY
Angle
SciTegic.value.DoubleValue
15.829

@<SCITEGIC>MOL_PROPERTY
Pdih
SciTegic.value.DoubleValue
131.684

@<SCITEGIC>MOL_PROPERTY
Idih
SciTegic.value.DoubleValue
0.124

@<SCITEGIC>MOL_PROPERTY
Tether
SciTegic.value.DoubleValue
0.000

@<TRIPOS>MOLECULE
CD_guest-s19_fast_vm2_rndm.mol2 : feprocess host+ligand conformer 67
         143         148           2
SMALL
USER_CHARGES
 
@<TRIPOS>ATOM
       1    C1      16.183874   15.153579   21.241799 C.3        1 MOL1         0.2972
       2    H1      15.119419   14.994508   21.027725 H          1 MOL1         0.0751
       3    O1      16.478571   16.556095   21.434207 O.3        1 MOL1        -0.3740
       4    C2      16.578336   14.369679   22.519590 C.3        1 MOL1         0.1003
       5    H2      16.455893   13.303009   22.291997 H          1 MOL1         0.0783
       6    O2      15.715370   14.695766   23.619179 O.3        1 MOL1        -0.5519
       7    H3      15.996576   15.577446   23.979760 H          1 MOL1         0.3769
       8    C3      18.072449   14.612950   22.843128 C.3        1 MOL1         0.1053
       9    H4      18.221986   15.685758   23.011579 H          1 MOL1         0.0783
      10    O3      18.474973   13.882566   24.008159 O.3        1 MOL1        -0.5519
      11    H5      18.033031   14.345881   24.768088 H          1 MOL1         0.3769
      12    C4      18.944368   14.220265   21.629530 C.3        1 MOL1         0.1018
      13    H6      18.938521   13.127415   21.525491 H          1 MOL1         0.0783
      14    C5      18.434949   14.877156   20.315111 C.3        1 MOL1         0.1043
      15    H7      18.612665   15.953522   20.397552 H          1 MOL1         0.0783
      16    O4      17.007661   14.653006   20.161476 O.3        1 MOL1        -0.3740
      17    C6      19.164383   14.407268   19.029239 C.3        1 MOL1         0.0138
      18    H8      20.021826   15.069654   18.855674 H          1 MOL1         0.0794
      19    H9      18.486990   14.535303   18.174313 H          1 MOL1         0.0794
      20    O5      19.618729   13.050831   19.097456 O.3        1 MOL1        -0.5486
      21    H10     20.432410   13.048756   19.652846 H          1 MOL1         0.3769
      22    C7      15.137712   20.361900   20.274606 C.3        1 MOL1         0.2972
      23    H11     14.594301   21.190746   19.803044 H          1 MOL1         0.0751
      24    O6      16.325970   20.824774   20.948729 O.3        1 MOL1        -0.3740
      25    C8      14.238722   19.612282   21.293764 C.3        1 MOL1         0.1003
      26    H12     13.381607   19.208167   20.740303 H          1 MOL1         0.0783
      27    O7      13.755496   20.515393   22.301112 O.3        1 MOL1        -0.5519
      28    H13     14.543784   20.845275   22.800199 H          1 MOL1         0.3769
      29    C9      15.013702   18.415574   21.909122 C.3        1 MOL1         0.1053
      30    H14     15.854623   18.820558   22.484159 H          1 MOL1         0.0783
      31    O8      14.173321   17.651843   22.779343 O.3        1 MOL1        -0.5519
      32    H15     14.774419   17.363966   23.514999 H          1 MOL1         0.3769
      33    C10     15.587563   17.497164   20.796268 C.3        1 MOL1         0.1018
      34    H16     14.747900   16.990930   20.302574 H          1 MOL1         0.0783
      35    C11     16.383015   18.320668   19.741283 C.3        1 MOL1         0.1043
      36    H17     17.277723   18.730719   20.227258 H          1 MOL1         0.0783
      37    O9      15.549577   19.409280   19.271502 O.3        1 MOL1        -0.3740
      38    C12     16.862923   17.530224   18.497192 C.3        1 MOL1         0.0138
      39    H18     17.849611   17.104081   18.710442 H          1 MOL1         0.0794
      40    H19     17.002271   18.238346   17.669485 H          1 MOL1         0.0794
      41    O10     15.959990   16.491322   18.102501 O.3        1 MOL1        -0.5486
      42    H20     16.118125   15.732281   18.710827 H          1 MOL1         0.3769
      43    C13     18.453157   24.153501   22.069393 C.3        1 MOL1         0.2972
      44    H21     18.838387   25.143050   22.346891 H          1 MOL1         0.0751
      45    O11     19.508219   23.182579   21.947026 O.3        1 MOL1        -0.3740
      46    C14     17.471653   23.647388   23.151207 C.3        1 MOL1         0.1003
      47    H22     16.625725   24.346048   23.188048 H          1 MOL1         0.0783
      48    O12     18.118091   23.612069   24.433933 O.3        1 MOL1        -0.5519
      49    H23     19.082757   23.475701   24.264996 H          1 MOL1         0.3769
      50    C15     16.925097   22.249535   22.780165 C.3        1 MOL1         0.1053
      51    H24     17.755340   21.536572   22.845962 H          1 MOL1         0.0783
      52    O13     15.906717   21.880714   23.714807 O.3        1 MOL1        -0.5519
      53    H25     16.302161   22.049449   24.598788 H          1 MOL1         0.3769
      54    C16     16.364072   22.213101   21.333879 C.3        1 MOL1         0.1018
      55    H26     15.364827   22.668534   21.335113 H          1 MOL1         0.0783
      56    C17     17.281947   22.932443   20.301924 C.3        1 MOL1         0.1043
      57    H27     18.148502   22.282819   20.124013 H          1 MOL1         0.0783
      58    O14     17.747468   24.208760   20.813387 O.3        1 MOL1        -0.3740
      59    C18     16.606732   23.172956   18.930588 C.3        1 MOL1         0.0138
      60    H28     16.491298   22.205168   18.424019 H          1 MOL1         0.0794
      61    H29     17.276681   23.786025   18.312852 H          1 MOL1         0.0794
      62    O15     15.329324   23.808772   19.061584 O.3        1 MOL1        -0.5486
      63    H30     14.998797   24.003302   18.157478 H          1 MOL1         0.3769
      64    C19     23.608103   22.771020   21.519221 C.3        1 MOL1         0.2972
      65    H31     24.685366   22.926864   21.377853 H          1 MOL1         0.0751
      66    O16     23.279120   21.371219   21.604277 O.3        1 MOL1        -0.3740
      67    C20     23.148912   23.434732   22.840437 C.3        1 MOL1         0.1003
      68    H32     23.352237   24.510719   22.763324 H          1 MOL1         0.0783
      69    O17     23.877347   22.889491   23.952112 O.3        1 MOL1        -0.5519
      70    H33     24.151996   21.976078   23.691262 H          1 MOL1         0.3769
      71    C21     21.627516   23.244252   23.042786 C.3        1 MOL1         0.1053
      72    H34     21.437079   22.174084   23.197344 H          1 MOL1         0.0783
      73    O18     21.194990   23.980217   24.191590 O.3        1 MOL1        -0.5519
      74    H35     21.859746   23.777795   24.887175 H          1 MOL1         0.3769
      75    C22     20.838940   23.701298   21.791717 C.3        1 MOL1         0.1018
      76    H36     20.858331   24.797970   21.745081 H          1 MOL1         0.0783
      77    C23     21.421998   23.114544   20.475404 C.3        1 MOL1         0.1043
      78    H37     21.235643   22.035328   20.479670 H          1 MOL1         0.0783
      79    O19     22.853620   23.347695   20.428901 O.3        1 MOL1        -0.3740
      80    C24     20.779723   23.664412   19.174810 C.3        1 MOL1         0.0138
      81    H38     19.929747   23.023271   18.909574 H          1 MOL1         0.0794
      82    H39     21.509272   23.575685   18.358689 H          1 MOL1         0.0794
      83    O20     20.333637   25.020353   19.289967 O.3        1 MOL1        -0.5486
      84    H40     19.478039   24.999217   19.777888 H          1 MOL1         0.3769
      85    C25     24.747588   17.589761   20.616685 C.3        1 MOL1         0.2972
      86    H41     25.333973   16.758900   20.203688 H          1 MOL1         0.0751
      87    O21     23.524370   17.128076   21.220726 O.3        1 MOL1        -0.3740
      88    C26     25.557378   18.369191   21.688056 C.3        1 MOL1         0.1003
      89    H42     26.459340   18.755961   21.196268 H          1 MOL1         0.0783
      90    O22     25.947356   17.516266   22.775948 O.3        1 MOL1        -0.5519
      91    H43     25.124695   17.086344   23.123291 H          1 MOL1         0.3769
      92    C27     24.745615   19.579415   22.214345 C.3        1 MOL1         0.1053
      93    H44     23.873794   19.196296   22.763405 H          1 MOL1         0.0783
      94    O23     25.562319   20.366032   23.088596 O.3        1 MOL1        -0.5519
      95    H45     26.010155   19.716178   23.674822 H          1 MOL1         0.3769
      96    C28     24.233002   20.453305   21.043412 C.3        1 MOL1         0.1018
      97    H46     25.088560   20.970711   20.589755 H          1 MOL1         0.0783
      98    C29     23.514682   19.600575   19.961417 C.3        1 MOL1         0.1043
      99    H47     22.599622   19.184706   20.401001 H          1 MOL1         0.0783
     100    O24     24.393034   18.517729   19.566685 O.3        1 MOL1        -0.3740
     101    C30     23.086786   20.377523   18.689414 C.3        1 MOL1         0.0138
     102    H48     22.073731   20.768162   18.844815 H          1 MOL1         0.0794
     103    H49     23.025692   19.669013   17.852644 H          1 MOL1         0.0794
     104    O25     23.970715   21.454552   18.356815 O.3        1 MOL1        -0.5486
     105    H50     23.766877   22.193956   18.975475 H          1 MOL1         0.3769
     106    C31     21.305792   13.771685   22.066051 C.3        1 MOL1         0.2972
     107    H51     20.906050   12.773096   22.284407 H          1 MOL1         0.0751
     108    O26     20.257726   14.741990   21.892677 O.3        1 MOL1        -0.3740
     109    C32     22.206891   14.245749   23.230721 C.3        1 MOL1         0.1003
     110    H52     23.051713   13.548464   23.302509 H          1 MOL1         0.0783
     111    O27     21.478501   14.238513   24.468723 O.3        1 MOL1        -0.5519
     112    H53     20.523136   14.359915   24.242266 H          1 MOL1         0.3769
     113    C33     22.771807   15.655519   22.943505 C.3        1 MOL1         0.1053
     114    H54     21.934993   16.365956   22.966475 H          1 MOL1         0.0783
     115    O28     23.720136   16.001037   23.958423 O.3        1 MOL1        -0.5519
     116    H55     23.275712   15.771213   24.805003 H          1 MOL1         0.3769
     117    C34     23.441694   15.728252   21.547305 C.3        1 MOL1         0.1018
     118    H56     24.433295   15.260753   21.611600 H          1 MOL1         0.0783
     119    C35     22.598153   15.050208   20.427479 C.3        1 MOL1         0.1043
     120    H57     21.746529   15.708087   20.211841 H          1 MOL1         0.0783
     121    O29     22.098957   13.757622   20.861698 O.3        1 MOL1        -0.3740
     122    C36     23.367994   14.854170   19.099606 C.3        1 MOL1         0.0138
     123    H58     23.514878   15.837528   18.632756 H          1 MOL1         0.0794
     124    H59     22.744729   14.260131   18.417728 H          1 MOL1         0.0794
     125    O30     24.635471   14.216193   19.299298 O.3        1 MOL1        -0.5486
     126    H60     25.027861   14.049201   18.414627 H          1 MOL1         0.3769
     127    C1      17.405324   16.975777   25.127562 C.2        1 MOL1         0.6173
     128    O1      17.570034   15.959033   25.774082 O.co2      1 MOL1        -0.6755
     129    O2      16.325886   17.270664   24.645611 O.co2      1 MOL1        -0.6755
     130    C2      18.624170   17.742217   24.749091 C.2        1 MOL1        -0.1504
     131    H1      19.563899   17.350419   25.130967 H          1 MOL1         0.0814
     132    C3      18.615645   18.832487   23.949567 C.2        1 MOL1        -0.1394
     133    H2      17.681246   19.228192   23.559454 H          1 MOL1         0.0817
     134    C4      19.867545   19.561927   23.507793 C.3        1 MOL1        -0.1849
     135    H3      20.763684   19.043963   23.875158 H          1 MOL1         0.0736
     136    H4      19.880187   20.561715   23.960296 H          1 MOL1         0.0736
     137    C5      19.954920   19.697749   21.971084 C.3        1 MOL1        -0.1866
     138    H5      19.106892   20.284532   21.597296 H          1 MOL1         0.0738
     139    H6      20.862486   20.255228   21.719460 H          1 MOL1         0.0738
     140    C6      19.986044   18.335321   21.252473 C.3        1 MOL1        -0.2879
     141    H7      19.090560   17.754640   21.499927 H          1 MOL1         0.0750
     142    H8      20.023714   18.467079   20.164220 H          1 MOL1         0.0750
     143    H9      20.862264   17.753783   21.557970 H          1 MOL1         0.0750
@<TRIPOS>BOND
    1     1     2    1
    2     1     3    1
    3     1     4    1
    4     4     5    1
    5     4     6    1
    6     6     7    1
    7     4     8    1
    8     8     9    1
    9     8    10    1
   10    10    11    1
   11     8    12    1
   12    12    13    1
   13    12    14    1
   14    14    15    1
   15     1    16    1
   16    14    16    1
   17    14    17    1
   18    17    18    1
   19    17    19    1
   20    17    20    1
   21    20    21    1
   22    22    23    1
   23    22    24    1
   24    22    25    1
   25    25    26    1
   26    25    27    1
   27    27    28    1
   28    25    29    1
   29    29    30    1
   30    29    31    1
   31    31    32    1
   32     3    33    1
   33    29    33    1
   34    33    34    1
   35    33    35    1
   36    35    36    1
   37    22    37    1
   38    35    37    1
   39    35    38    1
   40    38    39    1
   41    38    40    1
   42    38    41    1
   43    41    42    1
   44    43    44    1
   45    43    45    1
   46    43    46    1
   47    46    47    1
   48    46    48    1
   49    48    49    1
   50    46    50    1
   51    50    51    1
   52    50    52    1
   53    52    53    1
   54    24    54    1
   55    50    54    1
   56    54    55    1
   57    54    56    1
   58    56    57    1
   59    43    58    1
   60    56    58    1
   61    56    59    1
   62    59    60    1
   63    59    61    1
   64    59    62    1
   65    62    63    1
   66    64    65    1
   67    64    66    1
   68    64    67    1
   69    67    68    1
   70    67    69    1
   71    69    70    1
   72    67    71    1
   73    71    72    1
   74    71    73    1
   75    73    74    1
   76    45    75    1
   77    71    75    1
   78    75    76    1
   79    75    77    1
   80    77    78    1
   81    64    79    1
   82    77    79    1
   83    77    80    1
   84    80    81    1
   85    80    82    1
   86    80    83    1
   87    83    84    1
   88    85    86    1
   89    85    87    1
   90    85    88    1
   91    88    89    1
   92    88    90    1
   93    90    91    1
   94    88    92    1
   95    92    93    1
   96    92    94    1
   97    94    95    1
   98    66    96    1
   99    92    96    1
  100    96    97    1
  101    96    98    1
  102    98    99    1
  103    85   100    1
  104    98   100    1
  105    98   101    1
  106   101   102    1
  107   101   103    1
  108   101   104    1
  109   104   105    1
  110   106   107    1
  111    12   108    1
  112   106   108    1
  113   106   109    1
  114   109   110    1
  115   109   111    1
  116   111   112    1
  117   109   113    1
  118   113   114    1
  119   113   115    1
  120   115   116    1
  121    87   117    1
  122   113   117    1
  123   117   118    1
  124   117   119    1
  125   119   120    1
  126   106   121    1
  127   119   121    1
  128   119   122    1
  129   122   123    1
  130   122   124    1
  131   122   125    1
  132   125   126    1
  133   127   128    1
  134   127   129    2
  135   127   130    1
  136   130   131    1
  137   130   132    2
  138   132   133    1
  139   132   134    1
  140   134   135    1
  141   134   136    1
  142   134   137    1
  143   137   138    1
  144   137   139    1
  145   137   140    1
  146   140   141    1
  147   140   142    1
  148   140   143    1
@<TRIPOS>SUBSTRUCTURE
       1 MOL1            1 RESIDUE      1      MOL     
       2 MOL1          143 RESIDUE      1      MOL     
@<SCITEGIC>MOL_PROPERTY
feprocess Rank
SciTegic.value.IntegerValue
67

@<SCITEGIC>MOL_PROPERTY
Conf_Id
SciTegic.value.IntegerValue
332

@<SCITEGIC>MOL_PROPERTY
Probability
SciTegic.value.DoubleValue
0.01

@<SCITEGIC>MOL_PROPERTY
G
SciTegic.value.DoubleValue
500.140

@<SCITEGIC>MOL_PROPERTY
E
SciTegic.value.DoubleValue
316.393

@<SCITEGIC>MOL_PROPERTY
-TS
SciTegic.value.DoubleValue
183.747

@<SCITEGIC>MOL_PROPERTY
U+W
SciTegic.value.DoubleValue
190.305

@<SCITEGIC>MOL_PROPERTY
U
SciTegic.value.DoubleValue
265.642

@<SCITEGIC>MOL_PROPERTY
W
SciTegic.value.DoubleValue
-75.337

@<SCITEGIC>MOL_PROPERTY
W(PB)
SciTegic.value.DoubleValue
-81.279

@<SCITEGIC>MOL_PROPERTY
W(SA)
SciTegic.value.DoubleValue
5.942

@<SCITEGIC>MOL_PROPERTY
Valence
SciTegic.value.DoubleValue
152.888

@<SCITEGIC>MOL_PROPERTY
Coulomb
SciTegic.value.DoubleValue
137.391

@<SCITEGIC>MOL_PROPERTY
VdW
SciTegic.value.DoubleValue
-24.637

@<SCITEGIC>MOL_PROPERTY
VdW6
SciTegic.value.DoubleValue
-184.519

@<SCITEGIC>MOL_PROPERTY
VdW12
SciTegic.value.DoubleValue
159.881

@<SCITEGIC>MOL_PROPERTY
Bond
SciTegic.value.DoubleValue
5.056

@<SCITEGIC>MOL_PROPERTY
Angle
SciTegic.value.DoubleValue
14.488

@<SCITEGIC>MOL_PROPERTY
Pdih
SciTegic.value.DoubleValue
133.275

@<SCITEGIC>MOL_PROPERTY
Idih
SciTegic.value.DoubleValue
0.070

@<SCITEGIC>MOL_PROPERTY
Tether
SciTegic.value.DoubleValue
0.000

@<TRIPOS>MOLECULE
CD_guest-s19_fast_vm2_rndm.mol2 : feprocess host+ligand conformer 68
         143         148           2
SMALL
USER_CHARGES
 
@<TRIPOS>ATOM
       1    C1      16.327885   15.362576   22.161698 C.3        1 MOL1         0.2972
       2    H1      15.282714   15.254549   22.479819 H          1 MOL1         0.0751
       3    O1      16.603384   16.718653   21.752797 O.3        1 MOL1        -0.3740
       4    C2      17.268884   14.984062   23.333895 C.3        1 MOL1         0.1003
       5    H2      17.065292   13.938077   23.596576 H          1 MOL1         0.0783
       6    O2      16.999448   15.816428   24.471242 O.3        1 MOL1        -0.5519
       7    H3      17.146155   16.740708   24.178357 H          1 MOL1         0.3769
       8    C3      18.752896   15.089414   22.908904 C.3        1 MOL1         0.1053
       9    H4      18.975559   16.146350   22.720505 H          1 MOL1         0.0783
      10    O3      19.611005   14.596692   23.945033 O.3        1 MOL1        -0.5519
      11    H5      19.769978   15.376505   24.542535 H          1 MOL1         0.3769
      12    C4      19.033520   14.317593   21.599016 C.3        1 MOL1         0.1018
      13    H6      19.105148   13.244148   21.818520 H          1 MOL1         0.0783
      14    C5      17.961575   14.582775   20.506392 C.3        1 MOL1         0.1043
      15    H7      18.127588   15.602717   20.144611 H          1 MOL1         0.0783
      16    O4      16.617675   14.489358   21.047930 O.3        1 MOL1        -0.3740
      17    C6      18.069950   13.636800   19.286177 C.3        1 MOL1         0.0138
      18    H8      18.972131   13.901772   18.718509 H          1 MOL1         0.0794
      19    H9      17.209561   13.810039   18.626204 H          1 MOL1         0.0794
      20    O5      18.127649   12.259561   19.676307 O.3        1 MOL1        -0.5486
      21    H10     18.109090   11.716288   18.858355 H          1 MOL1         0.3769
      22    C7      14.833618   20.195073   20.392592 C.3        1 MOL1         0.2972
      23    H11     14.236634   20.990388   19.927994 H          1 MOL1         0.0751
      24    O6      16.083838   20.692682   20.910108 O.3        1 MOL1        -0.3740
      25    C8      14.062481   19.508019   21.546692 C.3        1 MOL1         0.1003
      26    H12     13.177242   19.030899   21.106348 H          1 MOL1         0.0783
      27    O7      13.634946   20.458126   22.534223 O.3        1 MOL1        -0.5519
      28    H13     14.436567   20.965939   22.819903 H          1 MOL1         0.3769
      29    C9      14.928630   18.397016   22.193026 C.3        1 MOL1         0.1053
      30    H14     15.774000   18.877190   22.705329 H          1 MOL1         0.0783
      31    O8      14.130458   17.680168   23.139765 O.3        1 MOL1        -0.5519
      32    H15     13.683460   18.371319   23.676368 H          1 MOL1         0.3769
      33    C10     15.500583   17.416090   21.132257 C.3        1 MOL1         0.1018
      34    H16     14.698015   16.729108   20.834472 H          1 MOL1         0.0783
      35    C11     16.052372   18.137226   19.865778 C.3        1 MOL1         0.1043
      36    H17     17.000512   18.609248   20.138122 H          1 MOL1         0.0783
      37    O9      15.125600   19.161804   19.428664 O.3        1 MOL1        -0.3740
      38    C12     16.349853   17.213480   18.655214 C.3        1 MOL1         0.0138
      39    H18     17.405269   16.919381   18.689867 H          1 MOL1         0.0794
      40    H19     16.225768   17.797371   17.733383 H          1 MOL1         0.0794
      41    O10     15.516997   16.047567   18.608032 O.3        1 MOL1        -0.5486
      42    H20     15.743139   15.490170   19.388415 H          1 MOL1         0.3769
      43    C13     18.383818   24.091426   21.497769 C.3        1 MOL1         0.2972
      44    H21     18.762468   25.115888   21.603152 H          1 MOL1         0.0751
      45    O11     19.446470   23.118195   21.557015 O.3        1 MOL1        -0.3740
      46    C14     17.368148   23.785187   22.626639 C.3        1 MOL1         0.1003
      47    H22     16.530536   24.485490   22.511624 H          1 MOL1         0.0783
      48    O12     17.955939   23.971240   23.923546 O.3        1 MOL1        -0.5519
      49    H23     18.930632   23.823431   23.828896 H          1 MOL1         0.3769
      50    C15     16.807087   22.351979   22.485450 C.3        1 MOL1         0.1053
      51    H24     17.630224   21.643778   22.650728 H          1 MOL1         0.0783
      52    O13     15.791372   22.151443   23.472792 O.3        1 MOL1        -0.5519
      53    H25     16.176297   22.514963   24.302080 H          1 MOL1         0.3769
      54    C16     16.232082   22.116621   21.065473 C.3        1 MOL1         0.1018
      55    H26     15.271849   22.642469   20.981008 H          1 MOL1         0.0783
      56    C17     17.207964   22.595354   19.951601 C.3        1 MOL1         0.1043
      57    H27     18.058310   21.902040   19.928730 H          1 MOL1         0.0783
      58    O14     17.700144   23.931520   20.236775 O.3        1 MOL1        -0.3740
      59    C18     16.575831   22.592752   18.539667 C.3        1 MOL1         0.0138
      60    H28     16.430639   21.549900   18.226245 H          1 MOL1         0.0794
      61    H29     17.285335   23.049530   17.836826 H          1 MOL1         0.0794
      62    O15     15.322877   23.288070   18.507956 O.3        1 MOL1        -0.5486
      63    H30     15.013150   23.301282   17.576208 H          1 MOL1         0.3769
      64    C19     23.605030   22.778920   21.642895 C.3        1 MOL1         0.2972
      65    H31     24.683094   22.978702   21.598411 H          1 MOL1         0.0751
      66    O16     23.325772   21.378325   21.827900 O.3        1 MOL1        -0.3740
      67    C20     22.974003   23.546134   22.830738 C.3        1 MOL1         0.1003
      68    H32     23.145351   24.616828   22.659144 H          1 MOL1         0.0783
      69    O17     23.588505   23.165334   24.072207 O.3        1 MOL1        -0.5519
      70    H33     23.865838   22.218780   23.984999 H          1 MOL1         0.3769
      71    C21     21.445851   23.312186   22.885934 C.3        1 MOL1         0.1053
      72    H34     21.263450   22.253938   23.120207 H          1 MOL1         0.0783
      73    O18     20.883949   24.141782   23.906470 O.3        1 MOL1        -0.5519
      74    H35     21.492178   24.043349   24.673508 H          1 MOL1         0.3769
      75    C22     20.793056   23.630646   21.518461 C.3        1 MOL1         0.1018
      76    H36     20.817195   24.717214   21.365247 H          1 MOL1         0.0783
      77    C23     21.534570   22.933972   20.342857 C.3        1 MOL1         0.1043
      78    H37     21.378070   21.851877   20.427723 H          1 MOL1         0.0783
      79    O19     22.957420   23.210198   20.425070 O.3        1 MOL1        -0.3740
      80    C24     21.021613   23.357911   18.943690 C.3        1 MOL1         0.0138
      81    H38     20.064910   22.854056   18.754603 H          1 MOL1         0.0794
      82    H39     21.732249   22.998463   18.187734 H          1 MOL1         0.0794
      83    O20     20.843395   24.773543   18.820174 O.3        1 MOL1        -0.5486
      84    H40     19.963323   24.987984   19.199244 H          1 MOL1         0.3769
      85    C25     25.084666   17.593780   21.635157 C.3        1 MOL1         0.2972
      86    H41     25.821270   16.786061   21.539132 H          1 MOL1         0.0751
      87    O21     23.751772   17.057830   21.735355 O.3        1 MOL1        -0.3740
      88    C26     25.404960   18.426881   22.908766 C.3        1 MOL1         0.1003
      89    H42     26.450530   18.748526   22.819592 H          1 MOL1         0.0783
      90    O22     25.259430   17.632522   24.096122 O.3        1 MOL1        -0.5519
      91    H43     24.296675   17.378795   24.157942 H          1 MOL1         0.3769
      92    C27     24.531477   19.697770   23.031173 C.3        1 MOL1         0.1053
      93    H44     23.523421   19.386650   23.318931 H          1 MOL1         0.0783
      94    O23     25.065070   20.546952   24.052107 O.3        1 MOL1        -0.5519
      95    H45     25.213409   19.955705   24.823635 H          1 MOL1         0.3769
      96    C28     24.440828   20.476723   21.698423 C.3        1 MOL1         0.1018
      97    H46     25.390307   21.003816   21.537438 H          1 MOL1         0.0783
      98    C29     24.156019   19.544464   20.492811 C.3        1 MOL1         0.1043
      99    H47     23.151862   19.124118   20.623683 H          1 MOL1         0.0783
     100    O24     25.128781   18.467988   20.482658 O.3        1 MOL1        -0.3740
     101    C30     24.164922   20.255394   19.114145 C.3        1 MOL1         0.0138
     102    H48     23.165714   20.674876   18.935700 H          1 MOL1         0.0794
     103    H49     24.342250   19.505472   18.332095 H          1 MOL1         0.0794
     104    O25     25.141408   21.298154   19.020399 O.3        1 MOL1        -0.5486
     105    H50     24.716365   22.115436   19.364503 H          1 MOL1         0.3769
     106    C31     21.253768   13.949268   20.579729 C.3        1 MOL1         0.2972
     107    H51     20.785235   13.051774   20.156248 H          1 MOL1         0.0751
     108    O26     20.269968   14.862162   21.102208 O.3        1 MOL1        -0.3740
     109    C32     22.270366   13.581489   21.691797 C.3        1 MOL1         0.1003
     110    H52     23.032517   12.943089   21.226434 H          1 MOL1         0.0783
     111    O27     21.645070   12.853159   22.760337 O.3        1 MOL1        -0.5519
     112    H53     20.965589   13.453644   23.159877 H          1 MOL1         0.3769
     113    C33     22.985158   14.840876   22.244473 C.3        1 MOL1         0.1053
     114    H54     22.255001   15.411633   22.833264 H          1 MOL1         0.0783
     115    O28     24.068070   14.419169   23.080344 O.3        1 MOL1        -0.5519
     116    H55     23.664687   13.832379   23.755393 H          1 MOL1         0.3769
     117    C34     23.525407   15.768511   21.121059 C.3        1 MOL1         0.1018
     118    H56     24.452439   15.328368   20.731780 H          1 MOL1         0.0783
     119    C35     22.508675   15.949272   19.956078 C.3        1 MOL1         0.1043
     120    H57     21.685754   16.569151   20.327793 H          1 MOL1         0.0783
     121    O29     21.989315   14.655584   19.559930 O.3        1 MOL1        -0.3740
     122    C36     23.054211   16.651078   18.686320 C.3        1 MOL1         0.0138
     123    H58     22.873976   17.727685   18.780390 H          1 MOL1         0.0794
     124    H59     22.467217   16.312131   17.822257 H          1 MOL1         0.0794
     125    O30     24.446518   16.411075   18.454792 O.3        1 MOL1        -0.5486
     126    H60     24.940771   17.010598   19.061109 H          1 MOL1         0.3769
     127    C1      21.248817   17.572965   24.276111 C.2        1 MOL1         0.6173
     128    O1      22.423473   17.385899   24.535522 O.co2      1 MOL1        -0.6755
     129    O2      20.333799   17.128059   24.945942 O.co2      1 MOL1        -0.6755
     130    C2      20.938560   18.360820   23.052151 C.2        1 MOL1        -0.1504
     131    H1      21.788456   18.661548   22.453841 H          1 MOL1         0.0814
     132    C3      19.697533   18.714107   22.655091 C.2        1 MOL1        -0.1394
     133    H2      18.819196   18.434875   23.235548 H          1 MOL1         0.0817
     134    C4      19.437209   19.532000   21.411145 C.3        1 MOL1        -0.1849
     135    H3      19.978591   20.481319   21.481132 H          1 MOL1         0.0736
     136    H4      18.375785   19.785351   21.369132 H          1 MOL1         0.0736
     137    C5      19.851331   18.784792   20.126161 C.3        1 MOL1        -0.1866
     138    H5      20.931936   18.609240   20.147009 H          1 MOL1         0.0738
     139    H6      19.366099   17.799789   20.101709 H          1 MOL1         0.0738
     140    C6      19.503020   19.571161   18.847029 C.3        1 MOL1        -0.2879
     141    H7      18.427940   19.778618   18.785339 H          1 MOL1         0.0750
     142    H8      20.038511   20.526271   18.820670 H          1 MOL1         0.0750
     143    H9      19.788999   18.999937   17.954645 H          1 MOL1         0.0750
@<TRIPOS>BOND
    1     1     2    1
    2     1     3    1
    3     1     4    1
    4     4     5    1
    5     4     6    1
    6     6     7    1
    7     4     8    1
    8     8     9    1
    9     8    10    1
   10    10    11    1
   11     8    12    1
   12    12    13    1
   13    12    14    1
   14    14    15    1
   15     1    16    1
   16    14    16    1
   17    14    17    1
   18    17    18    1
   19    17    19    1
   20    17    20    1
   21    20    21    1
   22    22    23    1
   23    22    24    1
   24    22    25    1
   25    25    26    1
   26    25    27    1
   27    27    28    1
   28    25    29    1
   29    29    30    1
   30    29    31    1
   31    31    32    1
   32     3    33    1
   33    29    33    1
   34    33    34    1
   35    33    35    1
   36    35    36    1
   37    22    37    1
   38    35    37    1
   39    35    38    1
   40    38    39    1
   41    38    40    1
   42    38    41    1
   43    41    42    1
   44    43    44    1
   45    43    45    1
   46    43    46    1
   47    46    47    1
   48    46    48    1
   49    48    49    1
   50    46    50    1
   51    50    51    1
   52    50    52    1
   53    52    53    1
   54    24    54    1
   55    50    54    1
   56    54    55    1
   57    54    56    1
   58    56    57    1
   59    43    58    1
   60    56    58    1
   61    56    59    1
   62    59    60    1
   63    59    61    1
   64    59    62    1
   65    62    63    1
   66    64    65    1
   67    64    66    1
   68    64    67    1
   69    67    68    1
   70    67    69    1
   71    69    70    1
   72    67    71    1
   73    71    72    1
   74    71    73    1
   75    73    74    1
   76    45    75    1
   77    71    75    1
   78    75    76    1
   79    75    77    1
   80    77    78    1
   81    64    79    1
   82    77    79    1
   83    77    80    1
   84    80    81    1
   85    80    82    1
   86    80    83    1
   87    83    84    1
   88    85    86    1
   89    85    87    1
   90    85    88    1
   91    88    89    1
   92    88    90    1
   93    90    91    1
   94    88    92    1
   95    92    93    1
   96    92    94    1
   97    94    95    1
   98    66    96    1
   99    92    96    1
  100    96    97    1
  101    96    98    1
  102    98    99    1
  103    85   100    1
  104    98   100    1
  105    98   101    1
  106   101   102    1
  107   101   103    1
  108   101   104    1
  109   104   105    1
  110   106   107    1
  111    12   108    1
  112   106   108    1
  113   106   109    1
  114   109   110    1
  115   109   111    1
  116   111   112    1
  117   109   113    1
  118   113   114    1
  119   113   115    1
  120   115   116    1
  121    87   117    1
  122   113   117    1
  123   117   118    1
  124   117   119    1
  125   119   120    1
  126   106   121    1
  127   119   121    1
  128   119   122    1
  129   122   123    1
  130   122   124    1
  131   122   125    1
  132   125   126    1
  133   127   128    1
  134   127   129    2
  135   127   130    1
  136   130   131    1
  137   130   132    2
  138   132   133    1
  139   132   134    1
  140   134   135    1
  141   134   136    1
  142   134   137    1
  143   137   138    1
  144   137   139    1
  145   137   140    1
  146   140   141    1
  147   140   142    1
  148   140   143    1
@<TRIPOS>SUBSTRUCTURE
       1 MOL1            1 RESIDUE      1      MOL     
       2 MOL1          143 RESIDUE      1      MOL     
@<SCITEGIC>MOL_PROPERTY
feprocess Rank
SciTegic.value.IntegerValue
68

@<SCITEGIC>MOL_PROPERTY
Conf_Id
SciTegic.value.IntegerValue
649

@<SCITEGIC>MOL_PROPERTY
Probability
SciTegic.value.DoubleValue
0.01

@<SCITEGIC>MOL_PROPERTY
G
SciTegic.value.DoubleValue
500.330

@<SCITEGIC>MOL_PROPERTY
E
SciTegic.value.DoubleValue
317.299

@<SCITEGIC>MOL_PROPERTY
-TS
SciTegic.value.DoubleValue
183.032

@<SCITEGIC>MOL_PROPERTY
U+W
SciTegic.value.DoubleValue
191.210

@<SCITEGIC>MOL_PROPERTY
U
SciTegic.value.DoubleValue
266.816

@<SCITEGIC>MOL_PROPERTY
W
SciTegic.value.DoubleValue
-75.606

@<SCITEGIC>MOL_PROPERTY
W(PB)
SciTegic.value.DoubleValue
-81.526

@<SCITEGIC>MOL_PROPERTY
W(SA)
SciTegic.value.DoubleValue
5.920

@<SCITEGIC>MOL_PROPERTY
Valence
SciTegic.value.DoubleValue
151.301

@<SCITEGIC>MOL_PROPERTY
Coulomb
SciTegic.value.DoubleValue
142.326

@<SCITEGIC>MOL_PROPERTY
VdW
SciTegic.value.DoubleValue
-26.811

@<SCITEGIC>MOL_PROPERTY
VdW6
SciTegic.value.DoubleValue
-184.202

@<SCITEGIC>MOL_PROPERTY
VdW12
SciTegic.value.DoubleValue
157.391

@<SCITEGIC>MOL_PROPERTY
Bond
SciTegic.value.DoubleValue
4.991

@<SCITEGIC>MOL_PROPERTY
Angle
SciTegic.value.DoubleValue
14.599

@<SCITEGIC>MOL_PROPERTY
Pdih
SciTegic.value.DoubleValue
131.709

@<SCITEGIC>MOL_PROPERTY
Idih
SciTegic.value.DoubleValue
0.003

@<SCITEGIC>MOL_PROPERTY
Tether
SciTegic.value.DoubleValue
0.000

@<TRIPOS>MOLECULE
CD_guest-s19_fast_vm2_rndm.mol2 : feprocess host+ligand conformer 69
         143         148           2
SMALL
USER_CHARGES
 
@<TRIPOS>ATOM
       1    C1      16.335316   15.436581   20.139423 C.3        1 MOL1         0.2972
       2    H1      15.366414   15.439991   19.623871 H          1 MOL1         0.0751
       3    O1      16.536592   16.641357   20.903714 O.3        1 MOL1        -0.3740
       4    C2      16.451887   14.223143   21.095499 C.3        1 MOL1         0.1003
       5    H2      16.340831   13.319190   20.482706 H          1 MOL1         0.0783
       6    O2      15.413865   14.247643   22.088887 O.3        1 MOL1        -0.5519
       7    H3      15.468130   15.124028   22.548329 H          1 MOL1         0.3769
       8    C3      17.845034   14.167656   21.773841 C.3        1 MOL1         0.1053
       9    H4      17.892177   14.973565   22.518039 H          1 MOL1         0.0783
      10    O3      17.989018   12.901083   22.424406 O.3        1 MOL1        -0.5519
      11    H5      17.222182   12.830963   23.033078 H          1 MOL1         0.3769
      12    C4      19.011703   14.370665   20.767621 C.3        1 MOL1         0.1018
      13    H6      19.186859   13.421546   20.244931 H          1 MOL1         0.0783
      14    C5      18.738095   15.490736   19.723534 C.3        1 MOL1         0.1043
      15    H7      18.800090   16.455807   20.239946 H          1 MOL1         0.0783
      16    O4      17.406954   15.331392   19.180156 O.3        1 MOL1        -0.3740
      17    C6      19.741797   15.549714   18.540669 C.3        1 MOL1         0.0138
      18    H8      20.532294   16.267692   18.787083 H          1 MOL1         0.0794
      19    H9      19.221223   15.954370   17.662466 H          1 MOL1         0.0794
      20    O5      20.326296   14.281140   18.219863 O.3        1 MOL1        -0.5486
      21    H10     20.934362   14.043901   18.958456 H          1 MOL1         0.3769
      22    C7      14.777537   20.238250   21.884781 C.3        1 MOL1         0.2972
      23    H11     14.102120   21.073894   22.108547 H          1 MOL1         0.0751
      24    O6      16.157622   20.650282   21.897150 O.3        1 MOL1        -0.3740
      25    C8      14.601440   19.126334   22.945863 C.3        1 MOL1         0.1003
      26    H12     13.561538   18.778343   22.895152 H          1 MOL1         0.0783
      27    O7      14.867813   19.645073   24.258886 O.3        1 MOL1        -0.5519
      28    H13     15.512439   20.387111   24.147888 H          1 MOL1         0.3769
      29    C9      15.525106   17.925312   22.639349 C.3        1 MOL1         0.1053
      30    H14     16.561381   18.253866   22.789756 H          1 MOL1         0.0783
      31    O8      15.222439   16.848142   23.532531 O.3        1 MOL1        -0.5519
      32    H15     15.219589   17.252972   24.428124 H          1 MOL1         0.3769
      33    C10     15.374418   17.445353   21.174705 C.3        1 MOL1         0.1018
      34    H16     14.444379   16.867605   21.089248 H          1 MOL1         0.0783
      35    C11     15.377576   18.617670   20.152194 C.3        1 MOL1         0.1043
      36    H17     16.402387   19.006430   20.098327 H          1 MOL1         0.0783
      37    O9      14.488388   19.678876   20.587369 O.3        1 MOL1        -0.3740
      38    C12     14.971838   18.199810   18.718644 C.3        1 MOL1         0.0138
      39    H18     15.784420   17.600331   18.286342 H          1 MOL1         0.0794
      40    H19     14.873330   19.104931   18.104375 H          1 MOL1         0.0794
      41    O10     13.750695   17.450351   18.700362 O.3        1 MOL1        -0.5486
      42    H20     13.511302   17.292950   17.761089 H          1 MOL1         0.3769
      43    C13     18.503976   24.101569   21.597444 C.3        1 MOL1         0.2972
      44    H21     18.822080   25.145517   21.481511 H          1 MOL1         0.0751
      45    O11     19.637216   23.220515   21.719227 O.3        1 MOL1        -0.3740
      46    C14     17.664977   23.955309   22.892409 C.3        1 MOL1         0.1003
      47    H22     16.806226   24.634331   22.811378 H          1 MOL1         0.0783
      48    O12     18.454260   24.319066   24.035659 O.3        1 MOL1        -0.5519
      49    H23     19.380397   24.046315   23.830543 H          1 MOL1         0.3769
      50    C15     17.124267   22.513512   23.046877 C.3        1 MOL1         0.1053
      51    H24     17.976136   21.840298   23.215890 H          1 MOL1         0.0783
      52    O13     16.228617   22.452157   24.162204 O.3        1 MOL1        -0.5519
      53    H25     16.693786   22.922701   24.889267 H          1 MOL1         0.3769
      54    C16     16.396790   22.062091   21.759309 C.3        1 MOL1         0.1018
      55    H26     15.464121   22.633753   21.664909 H          1 MOL1         0.0783
      56    C17     17.271110   22.295209   20.497134 C.3        1 MOL1         0.1043
      57    H27     18.150636   21.644208   20.567970 H          1 MOL1         0.0783
      58    O14     17.703958   23.679770   20.469706 O.3        1 MOL1        -0.3740
      59    C18     16.572274   21.968699   19.151170 C.3        1 MOL1         0.0138
      60    H28     16.740494   20.909605   18.919683 H          1 MOL1         0.0794
      61    H29     17.057066   22.547824   18.354271 H          1 MOL1         0.0794
      62    O15     15.166258   22.239209   19.161636 O.3        1 MOL1        -0.5486
      63    H30     14.732919   21.480195   19.617211 H          1 MOL1         0.3769
      64    C19     23.541491   22.606442   20.469162 C.3        1 MOL1         0.2972
      65    H31     24.547152   22.655460   20.032178 H          1 MOL1         0.0751
      66    O16     23.240562   21.280664   20.957452 O.3        1 MOL1        -0.3740
      67    C20     23.371255   23.643908   21.610473 C.3        1 MOL1         0.1003
      68    H32     23.472298   24.638814   21.157473 H          1 MOL1         0.0783
      69    O17     24.373198   23.501379   22.627170 O.3        1 MOL1        -0.5519
      70    H33     24.248177   22.604932   23.028866 H          1 MOL1         0.3769
      71    C21     21.949395   23.541833   22.213772 C.3        1 MOL1         0.1053
      72    H34     21.846352   22.556801   22.690503 H          1 MOL1         0.0783
      73    O18     21.766179   24.574242   23.188889 O.3        1 MOL1        -0.5519
      74    H35     22.584700   24.563649   23.732738 H          1 MOL1         0.3769
      75    C22     20.866498   23.665932   21.111312 C.3        1 MOL1         0.1018
      76    H36     20.817105   24.719526   20.807574 H          1 MOL1         0.0783
      77    C23     21.170537   22.774938   19.868460 C.3        1 MOL1         0.1043
      78    H37     21.003808   21.728724   20.152282 H          1 MOL1         0.0783
      79    O19     22.555018   22.939841   19.470580 O.3        1 MOL1        -0.3740
      80    C24     20.291158   23.058024   18.622866 C.3        1 MOL1         0.0138
      81    H38     19.381568   22.452900   18.689659 H          1 MOL1         0.0794
      82    H39     20.831314   22.714741   17.730420 H          1 MOL1         0.0794
      83    O20     19.933363   24.436729   18.479133 O.3        1 MOL1        -0.5486
      84    H40     19.131780   24.577189   19.032305 H          1 MOL1         0.3769
      85    C25     24.957987   17.676699   22.106177 C.3        1 MOL1         0.2972
      86    H41     25.631710   16.862235   22.400417 H          1 MOL1         0.0751
      87    O21     23.613603   17.208799   21.876618 O.3        1 MOL1        -0.3740
      88    C26     24.925481   18.768694   23.204139 C.3        1 MOL1         0.1003
      89    H42     25.935410   19.194170   23.270194 H          1 MOL1         0.0783
      90    O22     24.571350   18.228087   24.484573 O.3        1 MOL1        -0.5519
      91    H43     23.919076   17.500745   24.326647 H          1 MOL1         0.3769
      92    C27     23.962042   19.908293   22.804175 C.3        1 MOL1         0.1053
      93    H44     22.943414   19.501520   22.742290 H          1 MOL1         0.0783
      94    O23     24.018225   20.925787   23.807911 O.3        1 MOL1        -0.5519
      95    H45     23.970424   20.434220   24.659232 H          1 MOL1         0.3769
      96    C28     24.349255   20.480846   21.416285 C.3        1 MOL1         0.1018
      97    H46     25.265221   21.076469   21.526368 H          1 MOL1         0.0783
      98    C29     24.572988   19.357940   20.359700 C.3        1 MOL1         0.1043
      99    H47     23.594521   18.929201   20.107936 H          1 MOL1         0.0783
     100    O24     25.422298   18.306481   20.893060 O.3        1 MOL1        -0.3740
     101    C30     25.199013   19.871614   19.041307 C.3        1 MOL1         0.0138
     102    H48     24.448463   20.474352   18.512020 H          1 MOL1         0.0794
     103    H49     25.432648   19.007896   18.404513 H          1 MOL1         0.0794
     104    O25     26.376917   20.655206   19.271231 O.3        1 MOL1        -0.5486
     105    H50     26.761233   20.879189   18.395676 H          1 MOL1         0.3769
     106    C31     21.211168   13.814048   21.688216 C.3        1 MOL1         0.2972
     107    H51     20.819456   12.789441   21.646782 H          1 MOL1         0.0751
     108    O26     20.156600   14.783974   21.538828 O.3        1 MOL1        -0.3740
     109    C32     21.920334   14.052627   23.044964 C.3        1 MOL1         0.1003
     110    H52     22.787050   13.380072   23.076028 H          1 MOL1         0.0783
     111    O27     21.060353   13.726846   24.149498 O.3        1 MOL1        -0.5519
     112    H53     20.342272   14.410695   24.211523 H          1 MOL1         0.3769
     113    C33     22.453073   15.505150   23.112529 C.3        1 MOL1         0.1053
     114    H54     21.608390   16.193588   23.008265 H          1 MOL1         0.0783
     115    O28     23.111265   15.745752   24.359183 O.3        1 MOL1        -0.5519
     116    H55     22.376367   15.941376   24.996911 H          1 MOL1         0.3769
     117    C34     23.397930   15.783882   21.920495 C.3        1 MOL1         0.1018
     118    H56     24.329675   15.219993   22.056075 H          1 MOL1         0.0783
     119    C35     22.729443   15.390734   20.573635 C.3        1 MOL1         0.1043
     120    H57     21.910204   16.096753   20.406259 H          1 MOL1         0.0783
     121    O29     22.181005   14.045046   20.637904 O.3        1 MOL1        -0.3740
     122    C36     23.670946   15.496498   19.348801 C.3        1 MOL1         0.0138
     123    H58     23.803659   16.558147   19.100675 H          1 MOL1         0.0794
     124    H59     23.180487   15.022777   18.488058 H          1 MOL1         0.0794
     125    O30     24.948937   14.893392   19.580282 O.3        1 MOL1        -0.5486
     126    H60     25.500836   15.552867   20.053320 H          1 MOL1         0.3769
     127    C1      19.719706   16.731587   24.681430 C.2        1 MOL1         0.6173
     128    O1      20.694329   17.068331   25.328687 O.co2      1 MOL1        -0.6755
     129    O2      19.142230   15.677766   24.861188 O.co2      1 MOL1        -0.6755
     130    C2      19.316438   17.519992   23.487241 C.2        1 MOL1        -0.1504
     131    H1      18.502668   17.099556   22.904775 H          1 MOL1         0.0814
     132    C3      19.916965   18.660057   23.079648 C.2        1 MOL1        -0.1394
     133    H2      20.746093   19.092440   23.638416 H          1 MOL1         0.0817
     134    C4      19.516199   19.378665   21.810880 C.3        1 MOL1        -0.1849
     135    H3      19.641517   20.461232   21.934225 H          1 MOL1         0.0736
     136    H4      18.451591   19.201755   21.612703 H          1 MOL1         0.0736
     137    C5      20.357030   18.886519   20.616145 C.3        1 MOL1        -0.1866
     138    H5      21.349647   19.351338   20.654155 H          1 MOL1         0.0738
     139    H6      20.518739   17.807063   20.709620 H          1 MOL1         0.0738
     140    C6      19.680943   19.180999   19.261656 C.3        1 MOL1        -0.2879
     141    H7      19.487214   20.250471   19.141611 H          1 MOL1         0.0750
     142    H8      20.321185   18.856768   18.431531 H          1 MOL1         0.0750
     143    H9      18.723079   18.651798   19.178905 H          1 MOL1         0.0750
@<TRIPOS>BOND
    1     1     2    1
    2     1     3    1
    3     1     4    1
    4     4     5    1
    5     4     6    1
    6     6     7    1
    7     4     8    1
    8     8     9    1
    9     8    10    1
   10    10    11    1
   11     8    12    1
   12    12    13    1
   13    12    14    1
   14    14    15    1
   15     1    16    1
   16    14    16    1
   17    14    17    1
   18    17    18    1
   19    17    19    1
   20    17    20    1
   21    20    21    1
   22    22    23    1
   23    22    24    1
   24    22    25    1
   25    25    26    1
   26    25    27    1
   27    27    28    1
   28    25    29    1
   29    29    30    1
   30    29    31    1
   31    31    32    1
   32     3    33    1
   33    29    33    1
   34    33    34    1
   35    33    35    1
   36    35    36    1
   37    22    37    1
   38    35    37    1
   39    35    38    1
   40    38    39    1
   41    38    40    1
   42    38    41    1
   43    41    42    1
   44    43    44    1
   45    43    45    1
   46    43    46    1
   47    46    47    1
   48    46    48    1
   49    48    49    1
   50    46    50    1
   51    50    51    1
   52    50    52    1
   53    52    53    1
   54    24    54    1
   55    50    54    1
   56    54    55    1
   57    54    56    1
   58    56    57    1
   59    43    58    1
   60    56    58    1
   61    56    59    1
   62    59    60    1
   63    59    61    1
   64    59    62    1
   65    62    63    1
   66    64    65    1
   67    64    66    1
   68    64    67    1
   69    67    68    1
   70    67    69    1
   71    69    70    1
   72    67    71    1
   73    71    72    1
   74    71    73    1
   75    73    74    1
   76    45    75    1
   77    71    75    1
   78    75    76    1
   79    75    77    1
   80    77    78    1
   81    64    79    1
   82    77    79    1
   83    77    80    1
   84    80    81    1
   85    80    82    1
   86    80    83    1
   87    83    84    1
   88    85    86    1
   89    85    87    1
   90    85    88    1
   91    88    89    1
   92    88    90    1
   93    90    91    1
   94    88    92    1
   95    92    93    1
   96    92    94    1
   97    94    95    1
   98    66    96    1
   99    92    96    1
  100    96    97    1
  101    96    98    1
  102    98    99    1
  103    85   100    1
  104    98   100    1
  105    98   101    1
  106   101   102    1
  107   101   103    1
  108   101   104    1
  109   104   105    1
  110   106   107    1
  111    12   108    1
  112   106   108    1
  113   106   109    1
  114   109   110    1
  115   109   111    1
  116   111   112    1
  117   109   113    1
  118   113   114    1
  119   113   115    1
  120   115   116    1
  121    87   117    1
  122   113   117    1
  123   117   118    1
  124   117   119    1
  125   119   120    1
  126   106   121    1
  127   119   121    1
  128   119   122    1
  129   122   123    1
  130   122   124    1
  131   122   125    1
  132   125   126    1
  133   127   128    1
  134   127   129    2
  135   127   130    1
  136   130   131    1
  137   130   132    2
  138   132   133    1
  139   132   134    1
  140   134   135    1
  141   134   136    1
  142   134   137    1
  143   137   138    1
  144   137   139    1
  145   137   140    1
  146   140   141    1
  147   140   142    1
  148   140   143    1
@<TRIPOS>SUBSTRUCTURE
       1 MOL1            1 RESIDUE      1      MOL     
       2 MOL1          143 RESIDUE      1      MOL     
@<SCITEGIC>MOL_PROPERTY
feprocess Rank
SciTegic.value.IntegerValue
69

@<SCITEGIC>MOL_PROPERTY
Conf_Id
SciTegic.value.IntegerValue
198

@<SCITEGIC>MOL_PROPERTY
Probability
SciTegic.value.DoubleValue
0.01

@<SCITEGIC>MOL_PROPERTY
G
SciTegic.value.DoubleValue
500.332

@<SCITEGIC>MOL_PROPERTY
E
SciTegic.value.DoubleValue
317.744

@<SCITEGIC>MOL_PROPERTY
-TS
SciTegic.value.DoubleValue
182.589

@<SCITEGIC>MOL_PROPERTY
U+W
SciTegic.value.DoubleValue
191.655

@<SCITEGIC>MOL_PROPERTY
U
SciTegic.value.DoubleValue
269.078

@<SCITEGIC>MOL_PROPERTY
W
SciTegic.value.DoubleValue
-77.423

@<SCITEGIC>MOL_PROPERTY
W(PB)
SciTegic.value.DoubleValue
-83.383

@<SCITEGIC>MOL_PROPERTY
W(SA)
SciTegic.value.DoubleValue
5.960

@<SCITEGIC>MOL_PROPERTY
Valence
SciTegic.value.DoubleValue
152.007

@<SCITEGIC>MOL_PROPERTY
Coulomb
SciTegic.value.DoubleValue
143.961

@<SCITEGIC>MOL_PROPERTY
VdW
SciTegic.value.DoubleValue
-26.890

@<SCITEGIC>MOL_PROPERTY
VdW6
SciTegic.value.DoubleValue
-183.718

@<SCITEGIC>MOL_PROPERTY
VdW12
SciTegic.value.DoubleValue
156.829

@<SCITEGIC>MOL_PROPERTY
Bond
SciTegic.value.DoubleValue
4.850

@<SCITEGIC>MOL_PROPERTY
Angle
SciTegic.value.DoubleValue
14.692

@<SCITEGIC>MOL_PROPERTY
Pdih
SciTegic.value.DoubleValue
132.400

@<SCITEGIC>MOL_PROPERTY
Idih
SciTegic.value.DoubleValue
0.066

@<SCITEGIC>MOL_PROPERTY
Tether
SciTegic.value.DoubleValue
0.000

@<TRIPOS>MOLECULE
CD_guest-s19_fast_vm2_rndm.mol2 : feprocess host+ligand conformer 70
         143         148           2
SMALL
USER_CHARGES
 
@<TRIPOS>ATOM
       1    C1      16.142944   15.182522   20.268851 C.3        1 MOL1         0.2972
       2    H1      15.125623   15.136312   19.861316 H          1 MOL1         0.0751
       3    O1      16.443168   16.488773   20.805899 O.3        1 MOL1        -0.3740
       4    C2      16.366549   14.098942   21.356068 C.3        1 MOL1         0.1003
       5    H2      16.268998   13.122963   20.862868 H          1 MOL1         0.0783
       6    O2      15.393100   14.182086   22.406942 O.3        1 MOL1        -0.5519
       7    H3      15.545554   15.041877   22.873891 H          1 MOL1         0.3769
       8    C3      17.803777   14.203587   21.920875 C.3        1 MOL1         0.1053
       9    H4      17.896278   15.162622   22.449687 H          1 MOL1         0.0783
      10    O3      18.045442   13.125629   22.831929 O.3        1 MOL1        -0.5519
      11    H5      17.246658   13.084116   23.402815 H          1 MOL1         0.3769
      12    C4      18.858291   14.173671   20.784549 C.3        1 MOL1         0.1018
      13    H6      18.942142   13.139101   20.427410 H          1 MOL1         0.0783
      14    C5      18.495851   15.114719   19.595532 C.3        1 MOL1         0.1043
      15    H7      18.631319   16.151185   19.924436 H          1 MOL1         0.0783
      16    O4      17.106649   14.918197   19.225754 O.3        1 MOL1        -0.3740
      17    C6      19.370036   14.947654   18.326271 C.3        1 MOL1         0.0138
      18    H8      20.239269   15.610879   18.414157 H          1 MOL1         0.0794
      19    H9      18.794259   15.296193   17.458521 H          1 MOL1         0.0794
      20    O5      19.813693   13.603437   18.112488 O.3        1 MOL1        -0.5486
      21    H10     20.641782   13.496105   18.632760 H          1 MOL1         0.3769
      22    C7      15.089006   20.078789   22.252468 C.3        1 MOL1         0.2972
      23    H11     14.524832   20.931771   22.650426 H          1 MOL1         0.0751
      24    O6      16.427759   20.463921   21.879145 O.3        1 MOL1        -0.3740
      25    C8      15.175877   18.965335   23.322972 C.3        1 MOL1         0.1003
      26    H12     14.150250   18.660161   23.567940 H          1 MOL1         0.0783
      27    O7      15.823322   19.455077   24.506301 O.3        1 MOL1        -0.5519
      28    H13     16.582581   19.998336   24.197059 H          1 MOL1         0.3769
      29    C9      15.930043   17.729982   22.784562 C.3        1 MOL1         0.1053
      30    H14     16.981126   18.011407   22.655133 H          1 MOL1         0.0783
      31    O8      15.837578   16.677875   23.748947 O.3        1 MOL1        -0.5519
      32    H15     16.049824   17.105718   24.608858 H          1 MOL1         0.3769
      33    C10     15.384297   17.255899   21.411843 C.3        1 MOL1         0.1018
      34    H16     14.475257   16.662454   21.571518 H          1 MOL1         0.0783
      35    C11     15.104598   18.430317   20.431849 C.3        1 MOL1         0.1043
      36    H17     16.077074   18.779722   20.068847 H          1 MOL1         0.0783
      37    O9      14.430181   19.532140   21.090595 O.3        1 MOL1        -0.3740
      38    C12     14.276217   18.020184   19.189815 C.3        1 MOL1         0.0138
      39    H18     14.863962   17.312113   18.590082 H          1 MOL1         0.0794
      40    H19     14.117160   18.911477   18.568365 H          1 MOL1         0.0794
      41    O10     13.012539   17.439981   19.539288 O.3        1 MOL1        -0.5486
      42    H20     13.175886   16.573495   19.965375 H          1 MOL1         0.3769
      43    C13     18.534362   24.021988   21.074490 C.3        1 MOL1         0.2972
      44    H21     18.761408   25.037186   20.727327 H          1 MOL1         0.0751
      45    O11     19.725048   23.361339   21.547492 O.3        1 MOL1        -0.3740
      46    C14     17.495675   24.091163   22.228244 C.3        1 MOL1         0.1003
      47    H22     16.632478   24.647585   21.840954 H          1 MOL1         0.0783
      48    O12     18.026947   24.790119   23.362937 O.3        1 MOL1        -0.5519
      49    H23     18.717859   24.191348   23.758120 H          1 MOL1         0.3769
      50    C15     16.996023   22.690572   22.662113 C.3        1 MOL1         0.1053
      51    H24     17.816505   22.175442   23.174810 H          1 MOL1         0.0783
      52    O13     15.891411   22.855465   23.556746 O.3        1 MOL1        -0.5519
      53    H25     16.205452   23.489388   24.238429 H          1 MOL1         0.3769
      54    C16     16.582699   21.830049   21.442107 C.3        1 MOL1         0.1018
      55    H26     15.647667   22.227350   21.025677 H          1 MOL1         0.0783
      56    C17     17.676533   21.856904   20.342152 C.3        1 MOL1         0.1043
      57    H27     18.581509   21.381209   20.739169 H          1 MOL1         0.0783
      58    O14     17.961880   23.235656   20.007685 O.3        1 MOL1        -0.3740
      59    C18     17.297061   21.103237   19.043183 C.3        1 MOL1         0.0138
      60    H28     17.553301   20.044197   19.172453 H          1 MOL1         0.0794
      61    H29     17.921980   21.479886   18.222746 H          1 MOL1         0.0794
      62    O15     15.909413   21.233826   18.706029 O.3        1 MOL1        -0.5486
      63    H30     15.388534   20.836749   19.439752 H          1 MOL1         0.3769
      64    C19     23.727412   22.827304   20.696705 C.3        1 MOL1         0.2972
      65    H31     24.782361   22.866096   20.396534 H          1 MOL1         0.0751
      66    O16     23.322390   21.475613   21.014267 O.3        1 MOL1        -0.3740
      67    C20     23.449253   23.781246   21.885259 C.3        1 MOL1         0.1003
      68    H32     23.601991   24.805353   21.521233 H          1 MOL1         0.0783
      69    O17     24.357911   23.546364   22.970654 O.3        1 MOL1        -0.5519
      70    H33     24.040490   22.726071   23.422985 H          1 MOL1         0.3769
      71    C21     21.965966   23.649587   22.315053 C.3        1 MOL1         0.1053
      72    H34     21.803965   22.627003   22.682715 H          1 MOL1         0.0783
      73    O18     21.661662   24.580953   23.357855 O.3        1 MOL1        -0.5519
      74    H35     20.934089   24.148298   23.877268 H          1 MOL1         0.3769
      75    C22     21.002341   23.891066   21.119283 C.3        1 MOL1         0.1018
      76    H36     20.949114   24.974616   20.955292 H          1 MOL1         0.0783
      77    C23     21.461002   23.175486   19.804685 C.3        1 MOL1         0.1043
      78    H37     21.207986   22.113617   19.888961 H          1 MOL1         0.0783
      79    O19     22.895170   23.296374   19.618728 O.3        1 MOL1        -0.3740
      80    C24     20.805344   23.700059   18.501683 C.3        1 MOL1         0.0138
      81    H38     19.782257   23.316717   18.424188 H          1 MOL1         0.0794
      82    H39     21.357637   23.278195   17.651413 H          1 MOL1         0.0794
      83    O20     20.807868   25.130619   18.413279 O.3        1 MOL1        -0.5486
      84    H40     20.020313   25.461884   18.892744 H          1 MOL1         0.3769
      85    C25     24.637877   17.785986   22.389101 C.3        1 MOL1         0.2972
      86    H41     25.206685   16.939067   22.794406 H          1 MOL1         0.0751
      87    O21     23.369769   17.365637   21.857272 O.3        1 MOL1        -0.3740
      88    C26     24.374991   18.827962   23.501456 C.3        1 MOL1         0.1003
      89    H42     25.352438   19.179825   23.856115 H          1 MOL1         0.0783
      90    O22     23.661258   18.236796   24.600141 O.3        1 MOL1        -0.5519
      91    H43     23.426612   17.316139   24.328255 H          1 MOL1         0.3769
      92    C27     23.602068   20.047294   22.947735 C.3        1 MOL1         0.1053
      93    H44     22.595437   19.719388   22.663002 H          1 MOL1         0.0783
      94    O23     23.512934   21.025913   23.986077 O.3        1 MOL1        -0.5519
      95    H45     23.130925   20.540512   24.751054 H          1 MOL1         0.3769
      96    C28     24.288145   20.634013   21.684252 C.3        1 MOL1         0.1018
      97    H46     25.179781   21.194990   21.993400 H          1 MOL1         0.0783
      98    C29     24.691269   19.529867   20.664506 C.3        1 MOL1         0.1043
      99    H47     23.771842   19.152443   20.200529 H          1 MOL1         0.0783
     100    O24     25.371224   18.431290   21.326797 O.3        1 MOL1        -0.3740
     101    C30     25.596613   20.048934   19.522099 C.3        1 MOL1         0.0138
     102    H48     24.997778   20.703622   18.874500 H          1 MOL1         0.0794
     103    H49     25.918349   19.193387   18.913147 H          1 MOL1         0.0794
     104    O25     26.734876   20.765380   20.017019 O.3        1 MOL1        -0.5486
     105    H50     27.298178   20.998500   19.247101 H          1 MOL1         0.3769
     106    C31     21.250190   13.827388   21.194311 C.3        1 MOL1         0.2972
     107    H51     20.985897   12.787622   20.963222 H          1 MOL1         0.0751
     108    O26     20.078267   14.640921   21.387248 O.3        1 MOL1        -0.3740
     109    C32     22.054627   13.882599   22.517469 C.3        1 MOL1         0.1003
     110    H52     22.957154   13.271873   22.384934 H          1 MOL1         0.0783
     111    O27     21.270971   13.348013   23.596218 O.3        1 MOL1        -0.5519
     112    H53     20.331330   13.584293   23.403648 H          1 MOL1         0.3769
     113    C33     22.496059   15.331658   22.837638 C.3        1 MOL1         0.1053
     114    H54     21.598374   15.929358   23.049006 H          1 MOL1         0.0783
     115    O28     23.355171   15.322590   23.982130 O.3        1 MOL1        -0.5519
     116    H55     22.917345   14.717961   24.622805 H          1 MOL1         0.3769
     117    C34     23.219223   15.956809   21.619818 C.3        1 MOL1         0.1018
     118    H56     24.189478   15.461000   21.484026 H          1 MOL1         0.0783
     119    C35     22.386415   15.803818   20.320066 C.3        1 MOL1         0.1043
     120    H57     21.462980   16.385597   20.434276 H          1 MOL1         0.0783
     121    O29     22.047277   14.405957   20.135100 O.3        1 MOL1        -0.3740
     122    C36     23.099314   16.334563   19.048498 C.3        1 MOL1         0.0138
     123    H58     22.868806   17.403074   18.946635 H          1 MOL1         0.0794
     124    H59     22.676220   15.831100   18.169263 H          1 MOL1         0.0794
     125    O30     24.521172   16.156906   19.082478 O.3        1 MOL1        -0.5486
     126    H60     24.872064   16.756393   19.780071 H          1 MOL1         0.3769
     127    C1      19.993777   22.012030   25.355369 C.2        1 MOL1         0.6173
     128    O1      19.752763   22.922906   24.582339 O.co2      1 MOL1        -0.6755
     129    O2      20.181508   22.189490   26.543367 O.co2      1 MOL1        -0.6755
     130    C2      20.042518   20.605195   24.863410 C.2        1 MOL1        -0.1504
     131    H1      20.231278   19.850580   25.623151 H          1 MOL1         0.0814
     132    C3      19.868127   20.232748   23.574785 C.2        1 MOL1        -0.1394
     133    H2      19.688965   20.977898   22.803784 H          1 MOL1         0.0817
     134    C4      19.910015   18.784756   23.122368 C.3        1 MOL1        -0.1849
     135    H3      19.220836   18.198701   23.744444 H          1 MOL1         0.0736
     136    H4      20.907267   18.363416   23.301228 H          1 MOL1         0.0736
     137    C5      19.523265   18.582996   21.639581 C.3        1 MOL1        -0.1866
     138    H5      19.437082   17.507050   21.448991 H          1 MOL1         0.0738
     139    H6      18.534898   19.015324   21.451891 H          1 MOL1         0.0738
     140    C6      20.536179   19.191631   20.650542 C.3        1 MOL1        -0.2879
     141    H7      21.516167   18.719021   20.753337 H          1 MOL1         0.0750
     142    H8      20.665654   20.262056   20.835087 H          1 MOL1         0.0750
     143    H9      20.199569   19.058268   19.615048 H          1 MOL1         0.0750
@<TRIPOS>BOND
    1     1     2    1
    2     1     3    1
    3     1     4    1
    4     4     5    1
    5     4     6    1
    6     6     7    1
    7     4     8    1
    8     8     9    1
    9     8    10    1
   10    10    11    1
   11     8    12    1
   12    12    13    1
   13    12    14    1
   14    14    15    1
   15     1    16    1
   16    14    16    1
   17    14    17    1
   18    17    18    1
   19    17    19    1
   20    17    20    1
   21    20    21    1
   22    22    23    1
   23    22    24    1
   24    22    25    1
   25    25    26    1
   26    25    27    1
   27    27    28    1
   28    25    29    1
   29    29    30    1
   30    29    31    1
   31    31    32    1
   32     3    33    1
   33    29    33    1
   34    33    34    1
   35    33    35    1
   36    35    36    1
   37    22    37    1
   38    35    37    1
   39    35    38    1
   40    38    39    1
   41    38    40    1
   42    38    41    1
   43    41    42    1
   44    43    44    1
   45    43    45    1
   46    43    46    1
   47    46    47    1
   48    46    48    1
   49    48    49    1
   50    46    50    1
   51    50    51    1
   52    50    52    1
   53    52    53    1
   54    24    54    1
   55    50    54    1
   56    54    55    1
   57    54    56    1
   58    56    57    1
   59    43    58    1
   60    56    58    1
   61    56    59    1
   62    59    60    1
   63    59    61    1
   64    59    62    1
   65    62    63    1
   66    64    65    1
   67    64    66    1
   68    64    67    1
   69    67    68    1
   70    67    69    1
   71    69    70    1
   72    67    71    1
   73    71    72    1
   74    71    73    1
   75    73    74    1
   76    45    75    1
   77    71    75    1
   78    75    76    1
   79    75    77    1
   80    77    78    1
   81    64    79    1
   82    77    79    1
   83    77    80    1
   84    80    81    1
   85    80    82    1
   86    80    83    1
   87    83    84    1
   88    85    86    1
   89    85    87    1
   90    85    88    1
   91    88    89    1
   92    88    90    1
   93    90    91    1
   94    88    92    1
   95    92    93    1
   96    92    94    1
   97    94    95    1
   98    66    96    1
   99    92    96    1
  100    96    97    1
  101    96    98    1
  102    98    99    1
  103    85   100    1
  104    98   100    1
  105    98   101    1
  106   101   102    1
  107   101   103    1
  108   101   104    1
  109   104   105    1
  110   106   107    1
  111    12   108    1
  112   106   108    1
  113   106   109    1
  114   109   110    1
  115   109   111    1
  116   111   112    1
  117   109   113    1
  118   113   114    1
  119   113   115    1
  120   115   116    1
  121    87   117    1
  122   113   117    1
  123   117   118    1
  124   117   119    1
  125   119   120    1
  126   106   121    1
  127   119   121    1
  128   119   122    1
  129   122   123    1
  130   122   124    1
  131   122   125    1
  132   125   126    1
  133   127   128    1
  134   127   129    2
  135   127   130    1
  136   130   131    1
  137   130   132    2
  138   132   133    1
  139   132   134    1
  140   134   135    1
  141   134   136    1
  142   134   137    1
  143   137   138    1
  144   137   139    1
  145   137   140    1
  146   140   141    1
  147   140   142    1
  148   140   143    1
@<TRIPOS>SUBSTRUCTURE
       1 MOL1            1 RESIDUE      1      MOL     
       2 MOL1          143 RESIDUE      1      MOL     
@<SCITEGIC>MOL_PROPERTY
feprocess Rank
SciTegic.value.IntegerValue
70

@<SCITEGIC>MOL_PROPERTY
Conf_Id
SciTegic.value.IntegerValue
547

@<SCITEGIC>MOL_PROPERTY
Probability
SciTegic.value.DoubleValue
0.01

@<SCITEGIC>MOL_PROPERTY
G
SciTegic.value.DoubleValue
500.335

@<SCITEGIC>MOL_PROPERTY
E
SciTegic.value.DoubleValue
318.474

@<SCITEGIC>MOL_PROPERTY
-TS
SciTegic.value.DoubleValue
181.861

@<SCITEGIC>MOL_PROPERTY
U+W
SciTegic.value.DoubleValue
192.386

@<SCITEGIC>MOL_PROPERTY
U
SciTegic.value.DoubleValue
273.006

@<SCITEGIC>MOL_PROPERTY
W
SciTegic.value.DoubleValue
-80.621

@<SCITEGIC>MOL_PROPERTY
W(PB)
SciTegic.value.DoubleValue
-86.660

@<SCITEGIC>MOL_PROPERTY
W(SA)
SciTegic.value.DoubleValue
6.039

@<SCITEGIC>MOL_PROPERTY
Valence
SciTegic.value.DoubleValue
149.590

@<SCITEGIC>MOL_PROPERTY
Coulomb
SciTegic.value.DoubleValue
148.853

@<SCITEGIC>MOL_PROPERTY
VdW
SciTegic.value.DoubleValue
-25.436

@<SCITEGIC>MOL_PROPERTY
VdW6
SciTegic.value.DoubleValue
-182.789

@<SCITEGIC>MOL_PROPERTY
VdW12
SciTegic.value.DoubleValue
157.353

@<SCITEGIC>MOL_PROPERTY
Bond
SciTegic.value.DoubleValue
4.971

@<SCITEGIC>MOL_PROPERTY
Angle
SciTegic.value.DoubleValue
16.006

@<SCITEGIC>MOL_PROPERTY
Pdih
SciTegic.value.DoubleValue
128.613

@<SCITEGIC>MOL_PROPERTY
Idih
SciTegic.value.DoubleValue
0.001

@<SCITEGIC>MOL_PROPERTY
Tether
SciTegic.value.DoubleValue
0.000

@<TRIPOS>MOLECULE
CD_guest-s19_fast_vm2_rndm.mol2 : feprocess host+ligand conformer 71
         143         148           2
SMALL
USER_CHARGES
 
@<TRIPOS>ATOM
       1    C1      16.175404   15.177641   20.465932 C.3        1 MOL1         0.2972
       2    H1      15.152105   15.027158   20.098621 H          1 MOL1         0.0751
       3    O1      16.405768   16.550965   20.855086 O.3        1 MOL1        -0.3740
       4    C2      16.497656   14.236035   21.659232 C.3        1 MOL1         0.1003
       5    H2      16.462297   13.208690   21.273781 H          1 MOL1         0.0783
       6    O2      15.537947   14.353682   22.718081 O.3        1 MOL1        -0.5519
       7    H3      15.563317   15.293040   23.030655 H          1 MOL1         0.3769
       8    C3      17.938254   14.495439   22.171139 C.3        1 MOL1         0.1053
       9    H4      17.988838   15.520925   22.564600 H          1 MOL1         0.0783
      10    O3      18.262470   13.563036   23.207318 O.3        1 MOL1        -0.5519
      11    H5      17.465360   13.531885   23.782507 H          1 MOL1         0.3769
      12    C4      18.952813   14.365388   21.005563 C.3        1 MOL1         0.1018
      13    H6      19.055510   13.304698   20.741812 H          1 MOL1         0.0783
      14    C5      18.510090   15.162174   19.747227 C.3        1 MOL1         0.1043
      15    H7      18.577357   16.227794   19.982983 H          1 MOL1         0.0783
      16    O4      17.130139   14.851383   19.428107 O.3        1 MOL1        -0.3740
      17    C6      19.400657   14.932264   18.498525 C.3        1 MOL1         0.0138
      18    H8      20.221772   15.660419   18.524655 H          1 MOL1         0.0794
      19    H9      18.809161   15.152267   17.599917 H          1 MOL1         0.0794
      20    O5      19.942392   13.607408   18.423461 O.3        1 MOL1        -0.5486
      21    H10     20.621692   13.531503   19.131836 H          1 MOL1         0.3769
      22    C7      14.765652   20.222635   21.777878 C.3        1 MOL1         0.2972
      23    H11     14.134498   21.087194   22.020953 H          1 MOL1         0.0751
      24    O6      16.136609   20.615985   21.561747 O.3        1 MOL1        -0.3740
      25    C8      14.702000   19.185476   22.925112 C.3        1 MOL1         0.1003
      26    H12     13.676702   18.794633   22.949071 H          1 MOL1         0.0783
      27    O7      14.978636   19.795901   24.194065 O.3        1 MOL1        -0.5519
      28    H13     15.951771   20.000583   24.229229 H          1 MOL1         0.3769
      29    C9      15.648553   18.000676   22.613150 C.3        1 MOL1         0.1053
      30    H14     16.670029   18.386967   22.515261 H          1 MOL1         0.0783
      31    O8      15.600671   17.030846   23.665847 O.3        1 MOL1        -0.5519
      32    H15     16.177902   17.393248   24.389814 H          1 MOL1         0.3769
      33    C10     15.275797   17.354664   21.254324 C.3        1 MOL1         0.1018
      34    H16     14.362870   16.756953   21.376216 H          1 MOL1         0.0783
      35    C11     15.087372   18.421461   20.133128 C.3        1 MOL1         0.1043
      36    H17     16.085787   18.780255   19.861485 H          1 MOL1         0.0783
      37    O9      14.297043   19.557872   20.582556 O.3        1 MOL1        -0.3740
      38    C12     14.444726   17.850055   18.847605 C.3        1 MOL1         0.0138
      39    H18     15.164902   17.170882   18.371254 H          1 MOL1         0.0794
      40    H19     14.262672   18.676671   18.147670 H          1 MOL1         0.0794
      41    O10     13.225025   17.149980   19.122414 O.3        1 MOL1        -0.5486
      42    H20     12.838046   16.876398   18.262215 H          1 MOL1         0.3769
      43    C13     18.565808   23.920583   20.866015 C.3        1 MOL1         0.2972
      44    H21     18.982296   24.884363   20.546039 H          1 MOL1         0.0751
      45    O11     19.598441   23.032566   21.342213 O.3        1 MOL1        -0.3740
      46    C14     17.516075   24.119764   21.990157 C.3        1 MOL1         0.1003
      47    H22     16.733224   24.771391   21.580851 H          1 MOL1         0.0783
      48    O12     18.096327   24.760243   23.137456 O.3        1 MOL1        -0.5519
      49    H23     18.891461   24.230368   23.400731 H          1 MOL1         0.3769
      50    C15     16.844192   22.780341   22.392505 C.3        1 MOL1         0.1053
      51    H24     17.582322   22.167733   22.928316 H          1 MOL1         0.0783
      52    O13     15.732554   23.069260   23.246596 O.3        1 MOL1        -0.5519
      53    H25     16.103247   23.597132   23.986309 H          1 MOL1         0.3769
      54    C16     16.354558   21.981952   21.153887 C.3        1 MOL1         0.1018
      55    H26     15.432565   22.448570   20.784021 H          1 MOL1         0.0783
      56    C17     17.402956   21.948229   20.007992 C.3        1 MOL1         0.1043
      57    H27     18.239799   21.317520   20.331745 H          1 MOL1         0.0783
      58    O14     17.892939   23.286529   19.757468 O.3        1 MOL1        -0.3740
      59    C18     16.871463   21.364393   18.670406 C.3        1 MOL1         0.0138
      60    H28     17.059698   20.285278   18.658341 H          1 MOL1         0.0794
      61    H29     17.456688   21.792112   17.845521 H          1 MOL1         0.0794
      62    O15     15.474068   21.602843   18.456692 O.3        1 MOL1        -0.5486
      63    H30     14.981540   21.055983   19.111472 H          1 MOL1         0.3769
      64    C19     23.678356   22.769442   21.997089 C.3        1 MOL1         0.2972
      65    H31     24.747762   22.939577   22.176528 H          1 MOL1         0.0751
      66    O16     23.391763   21.376920   21.778287 O.3        1 MOL1        -0.3740
      67    C20     22.857595   23.229789   23.224727 C.3        1 MOL1         0.1003
      68    H32     23.026050   24.306948   23.352928 H          1 MOL1         0.0783
      69    O17     23.294618   22.536002   24.404553 O.3        1 MOL1        -0.5519
      70    H33     23.686264   21.680896   24.102050 H          1 MOL1         0.3769
      71    C21     21.344898   23.005182   22.989931 C.3        1 MOL1         0.1053
      72    H34     21.163908   21.923579   22.951847 H          1 MOL1         0.0783
      73    O18     20.611172   23.578848   24.076426 O.3        1 MOL1        -0.5519
      74    H35     21.050550   23.236103   24.886260 H          1 MOL1         0.3769
      75    C22     20.877082   23.628299   21.649884 C.3        1 MOL1         0.1018
      76    H36     20.799669   24.715324   21.785067 H          1 MOL1         0.0783
      77    C23     21.836939   23.305984   20.465905 C.3        1 MOL1         0.1043
      78    H37     21.694928   22.252852   20.197471 H          1 MOL1         0.0783
      79    O19     23.224155   23.511309   20.845446 O.3        1 MOL1        -0.3740
      80    C24     21.551751   24.138966   19.193575 C.3        1 MOL1         0.0138
      81    H38     20.603890   23.795632   18.757297 H          1 MOL1         0.0794
      82    H39     22.341330   23.936259   18.457538 H          1 MOL1         0.0794
      83    O20     21.478650   25.542754   19.472453 O.3        1 MOL1        -0.5486
      84    H40     21.373694   26.011579   18.615964 H          1 MOL1         0.3769
      85    C25     25.037569   17.691173   20.880504 C.3        1 MOL1         0.2972
      86    H41     25.655374   16.843861   20.556421 H          1 MOL1         0.0751
      87    O21     23.677267   17.280575   21.149620 O.3        1 MOL1        -0.3740
      88    C26     25.635971   18.376778   22.139427 C.3        1 MOL1         0.1003
      89    H42     26.616606   18.777545   21.851539 H          1 MOL1         0.0783
      90    O22     25.817477   17.452592   23.221742 O.3        1 MOL1        -0.5519
      91    H43     24.920143   17.106819   23.459250 H          1 MOL1         0.3769
      92    C27     24.747849   19.567935   22.576642 C.3        1 MOL1         0.1053
      93    H44     23.780824   19.166953   22.907787 H          1 MOL1         0.0783
      94    O23     25.370401   20.268855   23.658157 O.3        1 MOL1        -0.5519
      95    H45     25.691571   19.568152   24.268326 H          1 MOL1         0.3769
      96    C28     24.497891   20.540966   21.395637 C.3        1 MOL1         0.1018
      97    H46     25.414516   21.119049   21.220668 H          1 MOL1         0.0783
      98    C29     24.093695   19.805953   20.085842 C.3        1 MOL1         0.1043
      99    H47     23.085214   19.406232   20.218858 H          1 MOL1         0.0783
     100    O24     25.000473   18.700710   19.844331 O.3        1 MOL1        -0.3740
     101    C30     24.034799   20.707876   18.824959 C.3        1 MOL1         0.0138
     102    H48     23.011477   21.091259   18.723336 H          1 MOL1         0.0794
     103    H49     24.228562   20.086212   17.940712 H          1 MOL1         0.0794
     104    O25     24.952096   21.807763   18.864674 O.3        1 MOL1        -0.5486
     105    H50     24.571725   22.476250   19.480472 H          1 MOL1         0.3769
     106    C31     21.216350   14.006259   21.862213 C.3        1 MOL1         0.2972
     107    H51     20.793918   13.018387   22.087656 H          1 MOL1         0.0751
     108    O26     20.200369   14.932590   21.440901 O.3        1 MOL1        -0.3740
     109    C32     21.901609   14.591035   23.120172 C.3        1 MOL1         0.1003
     110    H52     22.714143   13.907974   23.400050 H          1 MOL1         0.0783
     111    O27     20.968502   14.686240   24.208821 O.3        1 MOL1        -0.5519
     112    H53     20.066864   14.550434   23.828325 H          1 MOL1         0.3769
     113    C33     22.522974   15.975155   22.816469 C.3        1 MOL1         0.1053
     114    H54     21.706392   16.675933   22.601522 H          1 MOL1         0.0783
     115    O28     23.245220   16.417039   23.969316 O.3        1 MOL1        -0.5519
     116    H55     22.631106   16.257616   24.721126 H          1 MOL1         0.3769
     117    C34     23.453847   15.919086   21.576340 C.3        1 MOL1         0.1018
     118    H56     24.389703   15.418327   21.857651 H          1 MOL1         0.0783
     119    C35     22.788525   15.175039   20.381555 C.3        1 MOL1         0.1043
     120    H57     21.993736   15.820347   19.988100 H          1 MOL1         0.0783
     121    O29     22.202276   13.917048   20.811057 O.3        1 MOL1        -0.3740
     122    C36     23.763539   14.888628   19.215007 C.3        1 MOL1         0.0138
     123    H58     24.012008   15.841275   18.727731 H          1 MOL1         0.0794
     124    H59     23.247898   14.266421   18.471197 H          1 MOL1         0.0794
     125    O30     24.963268   14.243545   19.660454 O.3        1 MOL1        -0.5486
     126    H60     25.496392   14.024216   18.865400 H          1 MOL1         0.3769
     127    C1      18.238234   18.919808   24.509601 C.2        1 MOL1         0.6173
     128    O1      17.717426   20.017808   24.566216 O.co2      1 MOL1        -0.6755
     129    O2      17.854263   17.974312   25.171188 O.co2      1 MOL1        -0.6755
     130    C2      19.293911   18.668780   23.493296 C.2        1 MOL1        -0.1504
     131    H1      19.745664   17.680272   23.506681 H          1 MOL1         0.0814
     132    C3      19.679235   19.592171   22.584321 C.2        1 MOL1        -0.1394
     133    H2      19.214012   20.575652   22.564024 H          1 MOL1         0.0817
     134    C4      20.773180   19.374223   21.565104 C.3        1 MOL1        -0.1849
     135    H3      21.676290   19.038021   22.086526 H          1 MOL1         0.0736
     136    H4      21.023571   20.327989   21.089927 H          1 MOL1         0.0736
     137    C5      20.407774   18.347154   20.476189 C.3        1 MOL1        -0.1866
     138    H5      21.292854   18.123192   19.868434 H          1 MOL1         0.0738
     139    H6      20.113489   17.412630   20.961259 H          1 MOL1         0.0738
     140    C6      19.279549   18.841575   19.553803 C.3        1 MOL1        -0.2879
     141    H7      19.549740   19.797326   19.087738 H          1 MOL1         0.0750
     142    H8      19.081259   18.120047   18.752091 H          1 MOL1         0.0750
     143    H9      18.355846   18.975785   20.129387 H          1 MOL1         0.0750
@<TRIPOS>BOND
    1     1     2    1
    2     1     3    1
    3     1     4    1
    4     4     5    1
    5     4     6    1
    6     6     7    1
    7     4     8    1
    8     8     9    1
    9     8    10    1
   10    10    11    1
   11     8    12    1
   12    12    13    1
   13    12    14    1
   14    14    15    1
   15     1    16    1
   16    14    16    1
   17    14    17    1
   18    17    18    1
   19    17    19    1
   20    17    20    1
   21    20    21    1
   22    22    23    1
   23    22    24    1
   24    22    25    1
   25    25    26    1
   26    25    27    1
   27    27    28    1
   28    25    29    1
   29    29    30    1
   30    29    31    1
   31    31    32    1
   32     3    33    1
   33    29    33    1
   34    33    34    1
   35    33    35    1
   36    35    36    1
   37    22    37    1
   38    35    37    1
   39    35    38    1
   40    38    39    1
   41    38    40    1
   42    38    41    1
   43    41    42    1
   44    43    44    1
   45    43    45    1
   46    43    46    1
   47    46    47    1
   48    46    48    1
   49    48    49    1
   50    46    50    1
   51    50    51    1
   52    50    52    1
   53    52    53    1
   54    24    54    1
   55    50    54    1
   56    54    55    1
   57    54    56    1
   58    56    57    1
   59    43    58    1
   60    56    58    1
   61    56    59    1
   62    59    60    1
   63    59    61    1
   64    59    62    1
   65    62    63    1
   66    64    65    1
   67    64    66    1
   68    64    67    1
   69    67    68    1
   70    67    69    1
   71    69    70    1
   72    67    71    1
   73    71    72    1
   74    71    73    1
   75    73    74    1
   76    45    75    1
   77    71    75    1
   78    75    76    1
   79    75    77    1
   80    77    78    1
   81    64    79    1
   82    77    79    1
   83    77    80    1
   84    80    81    1
   85    80    82    1
   86    80    83    1
   87    83    84    1
   88    85    86    1
   89    85    87    1
   90    85    88    1
   91    88    89    1
   92    88    90    1
   93    90    91    1
   94    88    92    1
   95    92    93    1
   96    92    94    1
   97    94    95    1
   98    66    96    1
   99    92    96    1
  100    96    97    1
  101    96    98    1
  102    98    99    1
  103    85   100    1
  104    98   100    1
  105    98   101    1
  106   101   102    1
  107   101   103    1
  108   101   104    1
  109   104   105    1
  110   106   107    1
  111    12   108    1
  112   106   108    1
  113   106   109    1
  114   109   110    1
  115   109   111    1
  116   111   112    1
  117   109   113    1
  118   113   114    1
  119   113   115    1
  120   115   116    1
  121    87   117    1
  122   113   117    1
  123   117   118    1
  124   117   119    1
  125   119   120    1
  126   106   121    1
  127   119   121    1
  128   119   122    1
  129   122   123    1
  130   122   124    1
  131   122   125    1
  132   125   126    1
  133   127   128    1
  134   127   129    2
  135   127   130    1
  136   130   131    1
  137   130   132    2
  138   132   133    1
  139   132   134    1
  140   134   135    1
  141   134   136    1
  142   134   137    1
  143   137   138    1
  144   137   139    1
  145   137   140    1
  146   140   141    1
  147   140   142    1
  148   140   143    1
@<TRIPOS>SUBSTRUCTURE
       1 MOL1            1 RESIDUE      1      MOL     
       2 MOL1          143 RESIDUE      1      MOL     
@<SCITEGIC>MOL_PROPERTY
feprocess Rank
SciTegic.value.IntegerValue
71

@<SCITEGIC>MOL_PROPERTY
Conf_Id
SciTegic.value.IntegerValue
515

@<SCITEGIC>MOL_PROPERTY
Probability
SciTegic.value.DoubleValue
0.01

@<SCITEGIC>MOL_PROPERTY
G
SciTegic.value.DoubleValue
500.394

@<SCITEGIC>MOL_PROPERTY
E
SciTegic.value.DoubleValue
316.061

@<SCITEGIC>MOL_PROPERTY
-TS
SciTegic.value.DoubleValue
184.334

@<SCITEGIC>MOL_PROPERTY
U+W
SciTegic.value.DoubleValue
189.972

@<SCITEGIC>MOL_PROPERTY
U
SciTegic.value.DoubleValue
266.974

@<SCITEGIC>MOL_PROPERTY
W
SciTegic.value.DoubleValue
-77.002

@<SCITEGIC>MOL_PROPERTY
W(PB)
SciTegic.value.DoubleValue
-82.983

@<SCITEGIC>MOL_PROPERTY
W(SA)
SciTegic.value.DoubleValue
5.981

@<SCITEGIC>MOL_PROPERTY
Valence
SciTegic.value.DoubleValue
150.571

@<SCITEGIC>MOL_PROPERTY
Coulomb
SciTegic.value.DoubleValue
141.297

@<SCITEGIC>MOL_PROPERTY
VdW
SciTegic.value.DoubleValue
-24.894

@<SCITEGIC>MOL_PROPERTY
VdW6
SciTegic.value.DoubleValue
-185.798

@<SCITEGIC>MOL_PROPERTY
VdW12
SciTegic.value.DoubleValue
160.904

@<SCITEGIC>MOL_PROPERTY
Bond
SciTegic.value.DoubleValue
5.238

@<SCITEGIC>MOL_PROPERTY
Angle
SciTegic.value.DoubleValue
15.032

@<SCITEGIC>MOL_PROPERTY
Pdih
SciTegic.value.DoubleValue
130.269

@<SCITEGIC>MOL_PROPERTY
Idih
SciTegic.value.DoubleValue
0.032

@<SCITEGIC>MOL_PROPERTY
Tether
SciTegic.value.DoubleValue
0.000

@<TRIPOS>MOLECULE
CD_guest-s19_fast_vm2_rndm.mol2 : feprocess host+ligand conformer 72
         143         148           2
SMALL
USER_CHARGES
 
@<TRIPOS>ATOM
       1    C1      16.329485   15.309892   21.844079 C.3        1 MOL1         0.2972
       2    H1      15.275933   15.223519   22.138735 H          1 MOL1         0.0751
       3    O1      16.615918   16.599795   21.268786 O.3        1 MOL1        -0.3740
       4    C2      17.247952   15.101075   23.074046 C.3        1 MOL1         0.1003
       5    H2      17.049742   14.093119   23.460482 H          1 MOL1         0.0783
       6    O2      16.950498   16.064748   24.098086 O.3        1 MOL1        -0.5519
       7    H3      16.104767   16.506201   23.846099 H          1 MOL1         0.3769
       8    C3      18.741014   15.172776   22.668352 C.3        1 MOL1         0.1053
       9    H4      18.963593   16.206775   22.380057 H          1 MOL1         0.0783
      10    O3      19.559184   14.789693   23.780548 O.3        1 MOL1        -0.5519
      11    H5      19.627924   15.585337   24.373904 H          1 MOL1         0.3769
      12    C4      19.059374   14.267176   21.446383 C.3        1 MOL1         0.1018
      13    H6      19.138473   13.226071   21.784990 H          1 MOL1         0.0783
      14    C5      17.995799   14.374403   20.317374 C.3        1 MOL1         0.1043
      15    H7      18.127414   15.345004   19.821824 H          1 MOL1         0.0783
      16    O4      16.656745   14.302048   20.866197 O.3        1 MOL1        -0.3740
      17    C6      18.140858   13.285413   19.227442 C.3        1 MOL1         0.0138
      18    H8      19.049537   13.494218   18.646790 H          1 MOL1         0.0794
      19    H9      17.288889   13.363739   18.538864 H          1 MOL1         0.0794
      20    O5      18.212699   11.966485   19.783544 O.3        1 MOL1        -0.5486
      21    H10     18.227724   11.328504   19.037008 H          1 MOL1         0.3769
      22    C7      14.740107   20.283690   20.764692 C.3        1 MOL1         0.2972
      23    H11     14.050684   21.098213   20.510570 H          1 MOL1         0.0751
      24    O6      16.019800   20.776037   21.204963 O.3        1 MOL1        -0.3740
      25    C8      14.155167   19.414769   21.906120 C.3        1 MOL1         0.1003
      26    H12     13.213748   18.984648   21.540136 H          1 MOL1         0.0783
      27    O7      13.884660   20.207946   23.072537 O.3        1 MOL1        -0.5519
      28    H13     14.633203   20.849430   23.174358 H          1 MOL1         0.3769
      29    C9      15.108386   18.244203   22.253651 C.3        1 MOL1         0.1053
      30    H14     16.030825   18.663537   22.679652 H          1 MOL1         0.0783
      31    O8      14.466479   17.402341   23.217405 O.3        1 MOL1        -0.5519
      32    H15     14.033515   18.025382   23.844893 H          1 MOL1         0.3769
      33    C10     15.484232   17.440782   20.978389 C.3        1 MOL1         0.1018
      34    H16     14.617891   16.850539   20.653344 H          1 MOL1         0.0783
      35    C11     15.931531   18.372074   19.820212 C.3        1 MOL1         0.1043
      36    H17     16.888901   18.820061   20.106074 H          1 MOL1         0.0783
      37    O9      14.955181   19.425160   19.623969 O.3        1 MOL1        -0.3740
      38    C12     16.166887   17.638935   18.476359 C.3        1 MOL1         0.0138
      39    H18     17.134045   17.121457   18.529333 H          1 MOL1         0.0794
      40    H19     16.247107   18.388941   17.678457 H          1 MOL1         0.0794
      41    O10     15.132650   16.696749   18.167584 O.3        1 MOL1        -0.5486
      42    H20     15.234650   15.939465   18.783992 H          1 MOL1         0.3769
      43    C13     18.408212   24.158379   21.463984 C.3        1 MOL1         0.2972
      44    H21     18.801346   25.182859   21.461736 H          1 MOL1         0.0751
      45    O11     19.445314   23.186231   21.694717 O.3        1 MOL1        -0.3740
      46    C14     17.355604   24.004078   22.588263 C.3        1 MOL1         0.1003
      47    H22     16.544311   24.714355   22.382306 H          1 MOL1         0.0783
      48    O12     17.933671   24.304354   23.868825 O.3        1 MOL1        -0.5519
      49    H23     18.890541   24.053213   23.822378 H          1 MOL1         0.3769
      50    C15     16.755469   22.579254   22.584312 C.3        1 MOL1         0.1053
      51    H24     17.548530   21.871017   22.862401 H          1 MOL1         0.0783
      52    O13     15.689900   22.512321   23.537078 O.3        1 MOL1        -0.5519
      53    H25     16.045513   22.948725   24.343576 H          1 MOL1         0.3769
      54    C16     16.233831   22.198166   21.177164 C.3        1 MOL1         0.1018
      55    H26     15.308611   22.755750   20.982695 H          1 MOL1         0.0783
      56    C17     17.280198   22.496083   20.066218 C.3        1 MOL1         0.1043
      57    H27     18.113993   21.793902   20.192761 H          1 MOL1         0.0783
      58    O14     17.779350   23.851978   20.201777 O.3        1 MOL1        -0.3740
      59    C18     16.743112   22.312097   18.625819 C.3        1 MOL1         0.0138
      60    H28     16.610330   21.239393   18.431831 H          1 MOL1         0.0794
      61    H29     17.505626   22.674622   17.923849 H          1 MOL1         0.0794
      62    O15     15.507595   23.002808   18.404954 O.3        1 MOL1        -0.5486
      63    H30     14.780736   22.406645   18.682057 H          1 MOL1         0.3769
      64    C19     23.596462   22.792829   21.609293 C.3        1 MOL1         0.2972
      65    H31     24.672973   22.984682   21.516418 H          1 MOL1         0.0751
      66    O16     23.318117   21.400384   21.846385 O.3        1 MOL1        -0.3740
      67    C20     23.019413   23.593531   22.803281 C.3        1 MOL1         0.1003
      68    H32     23.195772   24.658521   22.603775 H          1 MOL1         0.0783
      69    O17     23.677390   23.226948   24.026725 O.3        1 MOL1        -0.5519
      70    H33     23.958295   22.282150   23.934926 H          1 MOL1         0.3769
      71    C21     21.492475   23.376219   22.921236 C.3        1 MOL1         0.1053
      72    H34     21.309965   22.326332   23.190349 H          1 MOL1         0.0783
      73    O18     20.964451   24.237571   23.935288 O.3        1 MOL1        -0.5519
      74    H35     21.582507   24.142773   24.694323 H          1 MOL1         0.3769
      75    C22     20.797051   23.661779   21.569402 C.3        1 MOL1         0.1018
      76    H36     20.841702   24.742264   21.380242 H          1 MOL1         0.0783
      77    C23     21.476897   22.905757   20.394244 C.3        1 MOL1         0.1043
      78    H37     21.323681   21.830409   20.544870 H          1 MOL1         0.0783
      79    O19     22.900621   23.187272   20.405049 O.3        1 MOL1        -0.3740
      80    C24     20.907243   23.249023   18.994057 C.3        1 MOL1         0.0138
      81    H38     20.011461   22.638361   18.823796 H          1 MOL1         0.0794
      82    H39     21.644511   22.956282   18.234742 H          1 MOL1         0.0794
      83    O20     20.569278   24.632429   18.846757 O.3        1 MOL1        -0.5486
      84    H40     19.650290   24.735910   19.181870 H          1 MOL1         0.3769
      85    C25     25.051116   17.606877   21.563864 C.3        1 MOL1         0.2972
      86    H41     25.789602   16.808933   21.417015 H          1 MOL1         0.0751
      87    O21     23.737436   17.052233   21.783136 O.3        1 MOL1        -0.3740
      88    C26     25.469786   18.461846   22.794679 C.3        1 MOL1         0.1003
      89    H42     26.504656   18.781854   22.617590 H          1 MOL1         0.0783
      90    O22     25.418115   17.690899   24.004235 O.3        1 MOL1        -0.5519
      91    H43     24.456708   17.501532   24.177009 H          1 MOL1         0.3769
      92    C27     24.606731   19.733350   22.965647 C.3        1 MOL1         0.1053
      93    H44     23.626057   19.427080   23.341496 H          1 MOL1         0.0783
      94    O23     25.220258   20.604244   23.921983 O.3        1 MOL1        -0.5519
      95    H45     25.442087   20.029915   24.688349 H          1 MOL1         0.3769
      96    C28     24.405622   20.484578   21.630231 C.3        1 MOL1         0.1018
      97    H46     25.341783   20.999009   21.376475 H          1 MOL1         0.0783
      98    C29     24.013501   19.529356   20.472546 C.3        1 MOL1         0.1043
      99    H47     23.028470   19.101977   20.696289 H          1 MOL1         0.0783
     100    O24     24.994888   18.464565   20.400530 O.3        1 MOL1        -0.3740
     101    C30     23.896765   20.211568   19.083925 C.3        1 MOL1         0.0138
     102    H48     22.873903   20.594813   18.973261 H          1 MOL1         0.0794
     103    H49     24.039438   19.452910   18.303949 H          1 MOL1         0.0794
     104    O25     24.827884   21.282790   18.895831 O.3        1 MOL1        -0.5486
     105    H50     24.415361   22.086473   19.286611 H          1 MOL1         0.3769
     106    C31     21.357703   13.802734   20.634993 C.3        1 MOL1         0.2972
     107    H51     20.962484   12.850717   20.258297 H          1 MOL1         0.0751
     108    O26     20.295166   14.752515   20.880398 O.3        1 MOL1        -0.3740
     109    C32     22.214643   13.591094   21.912580 C.3        1 MOL1         0.1003
     110    H52     23.088202   12.993884   21.621476 H          1 MOL1         0.0783
     111    O27     21.489854   12.870934   22.920306 O.3        1 MOL1        -0.5519
     112    H53     20.862663   13.518132   23.328448 H          1 MOL1         0.3769
     113    C33     22.728114   14.963469   22.420917 C.3        1 MOL1         0.1053
     114    H54     21.854316   15.573429   22.678870 H          1 MOL1         0.0783
     115    O28     23.557096   14.809686   23.576880 O.3        1 MOL1        -0.5519
     116    H55     23.412962   15.639353   24.099755 H          1 MOL1         0.3769
     117    C34     23.515387   15.703356   21.306103 C.3        1 MOL1         0.1018
     118    H56     24.461617   15.167841   21.155325 H          1 MOL1         0.0783
     119    C35     22.712662   15.733504   19.968067 C.3        1 MOL1         0.1043
     120    H57     21.850851   16.395358   20.106402 H          1 MOL1         0.0783
     121    O29     22.236438   14.397879   19.655969 O.3        1 MOL1        -0.3740
     122    C36     23.479158   16.255588   18.727857 C.3        1 MOL1         0.0138
     123    H58     23.363099   17.344218   18.682189 H          1 MOL1         0.0794
     124    H59     22.998707   15.851629   17.826744 H          1 MOL1         0.0794
     125    O30     24.869419   15.915259   18.734780 O.3        1 MOL1        -0.5486
     126    H60     25.332514   16.658192   19.183229 H          1 MOL1         0.3769
     127    C1      21.437122   17.541287   24.442392 C.2        1 MOL1         0.6173
     128    O1      22.628390   17.335828   24.610497 O.co2      1 MOL1        -0.6755
     129    O2      20.568532   17.066998   25.150838 O.co2      1 MOL1        -0.6755
     130    C2      21.040488   18.335577   23.246866 C.2        1 MOL1        -0.1504
     131    H1      21.849532   18.658770   22.605997 H          1 MOL1         0.0814
     132    C3      19.770807   18.648515   22.905846 C.2        1 MOL1        -0.1394
     133    H2      18.927396   18.334723   23.520912 H          1 MOL1         0.0817
     134    C4      19.431939   19.428758   21.653416 C.3        1 MOL1        -0.1849
     135    H3      19.984110   20.375931   21.656747 H          1 MOL1         0.0736
     136    H4      18.367403   19.687032   21.658484 H          1 MOL1         0.0736
     137    C5      19.772038   18.622995   20.379684 C.3        1 MOL1        -0.1866
     138    H5      20.814775   18.291419   20.430404 H          1 MOL1         0.0738
     139    H6      19.154644   17.715153   20.345216 H          1 MOL1         0.0738
     140    C6      19.581142   19.437866   19.085128 C.3        1 MOL1        -0.2879
     141    H7      18.553524   19.803866   18.989274 H          1 MOL1         0.0750
     142    H8      20.257076   20.299440   19.065627 H          1 MOL1         0.0750
     143    H9      19.802124   18.818244   18.206648 H          1 MOL1         0.0750
@<TRIPOS>BOND
    1     1     2    1
    2     1     3    1
    3     1     4    1
    4     4     5    1
    5     4     6    1
    6     6     7    1
    7     4     8    1
    8     8     9    1
    9     8    10    1
   10    10    11    1
   11     8    12    1
   12    12    13    1
   13    12    14    1
   14    14    15    1
   15     1    16    1
   16    14    16    1
   17    14    17    1
   18    17    18    1
   19    17    19    1
   20    17    20    1
   21    20    21    1
   22    22    23    1
   23    22    24    1
   24    22    25    1
   25    25    26    1
   26    25    27    1
   27    27    28    1
   28    25    29    1
   29    29    30    1
   30    29    31    1
   31    31    32    1
   32     3    33    1
   33    29    33    1
   34    33    34    1
   35    33    35    1
   36    35    36    1
   37    22    37    1
   38    35    37    1
   39    35    38    1
   40    38    39    1
   41    38    40    1
   42    38    41    1
   43    41    42    1
   44    43    44    1
   45    43    45    1
   46    43    46    1
   47    46    47    1
   48    46    48    1
   49    48    49    1
   50    46    50    1
   51    50    51    1
   52    50    52    1
   53    52    53    1
   54    24    54    1
   55    50    54    1
   56    54    55    1
   57    54    56    1
   58    56    57    1
   59    43    58    1
   60    56    58    1
   61    56    59    1
   62    59    60    1
   63    59    61    1
   64    59    62    1
   65    62    63    1
   66    64    65    1
   67    64    66    1
   68    64    67    1
   69    67    68    1
   70    67    69    1
   71    69    70    1
   72    67    71    1
   73    71    72    1
   74    71    73    1
   75    73    74    1
   76    45    75    1
   77    71    75    1
   78    75    76    1
   79    75    77    1
   80    77    78    1
   81    64    79    1
   82    77    79    1
   83    77    80    1
   84    80    81    1
   85    80    82    1
   86    80    83    1
   87    83    84    1
   88    85    86    1
   89    85    87    1
   90    85    88    1
   91    88    89    1
   92    88    90    1
   93    90    91    1
   94    88    92    1
   95    92    93    1
   96    92    94    1
   97    94    95    1
   98    66    96    1
   99    92    96    1
  100    96    97    1
  101    96    98    1
  102    98    99    1
  103    85   100    1
  104    98   100    1
  105    98   101    1
  106   101   102    1
  107   101   103    1
  108   101   104    1
  109   104   105    1
  110   106   107    1
  111    12   108    1
  112   106   108    1
  113   106   109    1
  114   109   110    1
  115   109   111    1
  116   111   112    1
  117   109   113    1
  118   113   114    1
  119   113   115    1
  120   115   116    1
  121    87   117    1
  122   113   117    1
  123   117   118    1
  124   117   119    1
  125   119   120    1
  126   106   121    1
  127   119   121    1
  128   119   122    1
  129   122   123    1
  130   122   124    1
  131   122   125    1
  132   125   126    1
  133   127   128    1
  134   127   129    2
  135   127   130    1
  136   130   131    1
  137   130   132    2
  138   132   133    1
  139   132   134    1
  140   134   135    1
  141   134   136    1
  142   134   137    1
  143   137   138    1
  144   137   139    1
  145   137   140    1
  146   140   141    1
  147   140   142    1
  148   140   143    1
@<TRIPOS>SUBSTRUCTURE
       1 MOL1            1 RESIDUE      1      MOL     
       2 MOL1          143 RESIDUE      1      MOL     
@<SCITEGIC>MOL_PROPERTY
feprocess Rank
SciTegic.value.IntegerValue
72

@<SCITEGIC>MOL_PROPERTY
Conf_Id
SciTegic.value.IntegerValue
445

@<SCITEGIC>MOL_PROPERTY
Probability
SciTegic.value.DoubleValue
0.01

@<SCITEGIC>MOL_PROPERTY
G
SciTegic.value.DoubleValue
500.399

@<SCITEGIC>MOL_PROPERTY
E
SciTegic.value.DoubleValue
317.002

@<SCITEGIC>MOL_PROPERTY
-TS
SciTegic.value.DoubleValue
183.397

@<SCITEGIC>MOL_PROPERTY
U+W
SciTegic.value.DoubleValue
190.913

@<SCITEGIC>MOL_PROPERTY
U
SciTegic.value.DoubleValue
269.114

@<SCITEGIC>MOL_PROPERTY
W
SciTegic.value.DoubleValue
-78.200

@<SCITEGIC>MOL_PROPERTY
W(PB)
SciTegic.value.DoubleValue
-84.128

@<SCITEGIC>MOL_PROPERTY
W(SA)
SciTegic.value.DoubleValue
5.928

@<SCITEGIC>MOL_PROPERTY
Valence
SciTegic.value.DoubleValue
152.960

@<SCITEGIC>MOL_PROPERTY
Coulomb
SciTegic.value.DoubleValue
141.862

@<SCITEGIC>MOL_PROPERTY
VdW
SciTegic.value.DoubleValue
-25.708

@<SCITEGIC>MOL_PROPERTY
VdW6
SciTegic.value.DoubleValue
-185.468

@<SCITEGIC>MOL_PROPERTY
VdW12
SciTegic.value.DoubleValue
159.760

@<SCITEGIC>MOL_PROPERTY
Bond
SciTegic.value.DoubleValue
5.041

@<SCITEGIC>MOL_PROPERTY
Angle
SciTegic.value.DoubleValue
14.471

@<SCITEGIC>MOL_PROPERTY
Pdih
SciTegic.value.DoubleValue
133.433

@<SCITEGIC>MOL_PROPERTY
Idih
SciTegic.value.DoubleValue
0.015

@<SCITEGIC>MOL_PROPERTY
Tether
SciTegic.value.DoubleValue
0.000

@<TRIPOS>MOLECULE
CD_guest-s19_fast_vm2_rndm.mol2 : feprocess host+ligand conformer 73
         143         148           2
SMALL
USER_CHARGES
 
@<TRIPOS>ATOM
       1    C1      16.603482   15.637701   20.230545 C.3        1 MOL1         0.2972
       2    H1      15.693088   15.475303   19.639229 H          1 MOL1         0.0751
       3    O1      16.569007   16.900150   20.919361 O.3        1 MOL1        -0.3740
       4    C2      16.763114   14.528770   21.306443 C.3        1 MOL1         0.1003
       5    H2      16.760557   13.563698   20.783371 H          1 MOL1         0.0783
       6    O2      15.670928   14.560965   22.240386 O.3        1 MOL1        -0.5519
       7    H3      15.524431   15.508601   22.489276 H          1 MOL1         0.3769
       8    C3      18.114761   14.660306   22.055545 C.3        1 MOL1         0.1053
       9    H4      18.095196   15.585640   22.648233 H          1 MOL1         0.0783
      10    O3      18.292689   13.531828   22.917664 O.3        1 MOL1        -0.5519
      11    H5      17.427776   13.418115   23.371584 H          1 MOL1         0.3769
      12    C4      19.282702   14.756381   21.043579 C.3        1 MOL1         0.1018
      13    H6      19.355568   13.807628   20.494771 H          1 MOL1         0.0783
      14    C5      19.029501   15.891169   20.022128 C.3        1 MOL1         0.1043
      15    H7      18.974263   16.839905   20.566774 H          1 MOL1         0.0783
      16    O4      17.764889   15.630203   19.368635 O.3        1 MOL1        -0.3740
      17    C6      20.128806   16.042052   18.940638 C.3        1 MOL1         0.0138
      18    H8      20.915636   16.693801   19.339547 H          1 MOL1         0.0794
      19    H9      19.698629   16.559663   18.072971 H          1 MOL1         0.0794
      20    O5      20.695523   14.788604   18.536834 O.3        1 MOL1        -0.5486
      21    H10     21.166158   14.411754   19.315779 H          1 MOL1         0.3769
      22    C7      14.534717   20.481485   21.027129 C.3        1 MOL1         0.2972
      23    H11     13.831301   21.321289   20.971442 H          1 MOL1         0.0751
      24    O6      15.876079   20.916388   21.322990 O.3        1 MOL1        -0.3740
      25    C8      14.098903   19.465041   22.112324 C.3        1 MOL1         0.1003
      26    H12     13.130913   19.049867   21.802716 H          1 MOL1         0.0783
      27    O7      13.947196   20.097208   23.392318 O.3        1 MOL1        -0.5519
      28    H13     14.743315   20.668501   23.539394 H          1 MOL1         0.3769
      29    C9      15.112171   18.297957   22.192569 C.3        1 MOL1         0.1053
      30    H14     16.065905   18.697673   22.562583 H          1 MOL1         0.0783
      31    O8      14.626399   17.299827   23.097120 O.3        1 MOL1        -0.5519
      32    H15     14.322375   17.798978   23.887645 H          1 MOL1         0.3769
      33    C10     15.352413   17.662141   20.799947 C.3        1 MOL1         0.1018
      34    H16     14.491071   17.021732   20.568166 H          1 MOL1         0.0783
      35    C11     15.554702   18.713797   19.667814 C.3        1 MOL1         0.1043
      36    H17     16.556110   19.148648   19.780040 H          1 MOL1         0.0783
      37    O9      14.567020   19.771502   19.772415 O.3        1 MOL1        -0.3740
      38    C12     15.474581   18.119813   18.240733 C.3        1 MOL1         0.0138
      39    H18     16.379178   17.525049   18.057452 H          1 MOL1         0.0794
      40    H19     15.479214   18.946536   17.517852 H          1 MOL1         0.0794
      41    O10     14.309852   17.304868   18.056842 O.3        1 MOL1        -0.5486
      42    H20     14.288960   17.023869   17.116056 H          1 MOL1         0.3769
      43    C13     18.437668   24.051562   21.972428 C.3        1 MOL1         0.2972
      44    H21     18.947331   25.007795   22.148473 H          1 MOL1         0.0751
      45    O11     19.373870   22.987250   21.721628 O.3        1 MOL1        -0.3740
      46    C14     17.586495   23.670417   23.206354 C.3        1 MOL1         0.1003
      47    H22     16.821512   24.447525   23.332733 H          1 MOL1         0.0783
      48    O12     18.399044   23.609369   24.389403 O.3        1 MOL1        -0.5519
      49    H23     19.341772   23.593503   24.090147 H          1 MOL1         0.3769
      50    C15     16.867527   22.322252   22.976031 C.3        1 MOL1         0.1053
      51    H24     17.629549   21.534274   22.935700 H          1 MOL1         0.0783
      52    O13     15.981365   22.071325   24.069844 O.3        1 MOL1        -0.5519
      53    H25     16.512933   22.277699   24.871572 H          1 MOL1         0.3769
      54    C16     16.084720   22.305675   21.638114 C.3        1 MOL1         0.1018
      55    H26     15.142182   22.850591   21.775152 H          1 MOL1         0.0783
      56    C17     16.891032   22.908949   20.450412 C.3        1 MOL1         0.1043
      57    H27     17.651174   22.173470   20.161877 H          1 MOL1         0.0783
      58    O14     17.555357   24.141378   20.834365 O.3        1 MOL1        -0.3740
      59    C18     16.034359   23.183304   19.190759 C.3        1 MOL1         0.0138
      60    H28     15.685293   22.224182   18.784318 H          1 MOL1         0.0794
      61    H29     16.678350   23.641464   18.428299 H          1 MOL1         0.0794
      62    O15     14.916077   24.038186   19.461318 O.3        1 MOL1        -0.5486
      63    H30     14.237038   23.512210   19.932011 H          1 MOL1         0.3769
      64    C19     23.473913   22.473497   21.047551 C.3        1 MOL1         0.2972
      65    H31     24.518077   22.650263   20.758669 H          1 MOL1         0.0751
      66    O16     23.263541   21.112148   21.464540 O.3        1 MOL1        -0.3740
      67    C20     23.091078   23.402414   22.229077 C.3        1 MOL1         0.1003
      68    H32     23.231648   24.437268   21.890885 H          1 MOL1         0.0783
      69    O17     23.936686   23.161515   23.364776 O.3        1 MOL1        -0.5519
      70    H33     24.363510   22.280339   23.224287 H          1 MOL1         0.3769
      71    C21     21.603276   23.226084   22.614118 C.3        1 MOL1         0.1053
      72    H34     21.466062   22.210503   23.011427 H          1 MOL1         0.0783
      73    O18     21.251897   24.191711   23.610154 O.3        1 MOL1        -0.5519
      74    H35     21.995328   24.167300   24.254050 H          1 MOL1         0.3769
      75    C22     20.706115   23.390046   21.364131 C.3        1 MOL1         0.1018
      76    H36     20.741036   24.436103   21.031922 H          1 MOL1         0.0783
      77    C23     21.178302   22.476055   20.202010 C.3        1 MOL1         0.1043
      78    H37     21.053984   21.434095   20.517126 H          1 MOL1         0.0783
      79    O19     22.582271   22.731930   19.937425 O.3        1 MOL1        -0.3740
      80    C24     20.371746   22.643881   18.888215 C.3        1 MOL1         0.0138
      81    H38     19.517456   21.955599   18.918773 H          1 MOL1         0.0794
      82    H39     21.001767   22.330268   18.045140 H          1 MOL1         0.0794
      83    O20     19.899654   23.981433   18.682320 O.3        1 MOL1        -0.5486
      84    H40     19.198732   24.150503   19.353545 H          1 MOL1         0.3769
      85    C25     25.201829   17.386134   21.410174 C.3        1 MOL1         0.2972
      86    H41     25.909451   16.585806   21.158702 H          1 MOL1         0.0751
      87    O21     24.158558   16.892013   22.273083 O.3        1 MOL1        -0.3740
      88    C26     25.950775   18.540500   22.136644 C.3        1 MOL1         0.1003
      89    H42     26.779845   18.840222   21.482774 H          1 MOL1         0.0783
      90    O22     26.482651   18.101283   23.396214 O.3        1 MOL1        -0.5519
      91    H43     25.703266   17.939915   23.994963 H          1 MOL1         0.3769
      92    C27     25.051588   19.782166   22.359613 C.3        1 MOL1         0.1053
      93    H44     24.313841   19.533579   23.128548 H          1 MOL1         0.0783
      94    O23     25.852459   20.882417   22.802947 O.3        1 MOL1        -0.5519
      95    H45     26.419602   20.516405   23.517861 H          1 MOL1         0.3769
      96    C28     24.279945   20.170753   21.078900 C.3        1 MOL1         0.1018
      97    H46     24.983345   20.595350   20.350319 H          1 MOL1         0.0783
      98    C29     23.580737   18.941321   20.447878 C.3        1 MOL1         0.1043
      99    H47     22.837695   18.556337   21.155554 H          1 MOL1         0.0783
     100    O24     24.585446   17.927995   20.216666 O.3        1 MOL1        -0.3740
     101    C30     22.831457   19.234349   19.122277 C.3        1 MOL1         0.0138
     102    H48     21.807447   19.545243   19.366520 H          1 MOL1         0.0794
     103    H49     22.754290   18.301052   18.548975 H          1 MOL1         0.0794
     104    O25     23.459639   20.248913   18.329751 O.3        1 MOL1        -0.5486
     105    H50     23.293187   21.111126   18.776687 H          1 MOL1         0.3769
     106    C31     21.341193   13.894716   21.978844 C.3        1 MOL1         0.2972
     107    H51     20.762382   12.962805   21.933296 H          1 MOL1         0.0751
     108    O26     20.498302   15.045184   21.762483 O.3        1 MOL1        -0.3740
     109    C32     22.020279   14.004445   23.359465 C.3        1 MOL1         0.1003
     110    H52     22.695226   13.146084   23.470059 H          1 MOL1         0.0783
     111    O27     21.014465   13.954958   24.385598 O.3        1 MOL1        -0.5519
     112    H53     20.152339   14.150317   23.947028 H          1 MOL1         0.3769
     113    C33     22.870046   15.293920   23.449742 C.3        1 MOL1         0.1053
     114    H54     22.168512   16.137235   23.470268 H          1 MOL1         0.0783
     115    O28     23.651543   15.283981   24.651190 O.3        1 MOL1        -0.5519
     116    H55     23.963103   16.216330   24.792015 H          1 MOL1         0.3769
     117    C34     23.824203   15.481497   22.234772 C.3        1 MOL1         0.1018
     118    H56     24.718757   14.869857   22.408068 H          1 MOL1         0.0783
     119    C35     23.179095   15.092184   20.860211 C.3        1 MOL1         0.1043
     120    H57     22.545544   15.927773   20.542736 H          1 MOL1         0.0783
     121    O29     22.367011   13.895543   20.973987 O.3        1 MOL1        -0.3740
     122    C36     24.186670   14.787041   19.718648 C.3        1 MOL1         0.0138
     123    H58     24.588136   15.719620   19.310255 H          1 MOL1         0.0794
     124    H59     23.640795   14.303384   18.897185 H          1 MOL1         0.0794
     125    O30     25.260680   13.944150   20.152981 O.3        1 MOL1        -0.5486
     126    H60     25.801950   13.720492   19.364612 H          1 MOL1         0.3769
     127    C1      23.224964   18.590680   25.518719 C.2        1 MOL1         0.6173
     128    O1      24.232029   18.004101   25.161288 O.co2      1 MOL1        -0.6755
     129    O2      23.067072   19.022031   26.644915 O.co2      1 MOL1        -0.6755
     130    C2      22.153084   18.775856   24.502044 C.2        1 MOL1        -0.1504
     131    H1      22.377877   18.365046   23.525199 H          1 MOL1         0.0814
     132    C3      20.976297   19.405771   24.732697 C.2        1 MOL1        -0.1394
     133    H2      20.766847   19.816127   25.719998 H          1 MOL1         0.0817
     134    C4      19.862721   19.613948   23.716668 C.3        1 MOL1        -0.1849
     135    H3      19.604461   20.680244   23.698806 H          1 MOL1         0.0736
     136    H4      18.961748   19.084580   24.053776 H          1 MOL1         0.0736
     137    C5      20.209595   19.158555   22.281097 C.3        1 MOL1        -0.1866
     138    H5      21.113021   19.682141   21.954735 H          1 MOL1         0.0738
     139    H6      20.429647   18.082076   22.275099 H          1 MOL1         0.0738
     140    C6      19.072756   19.449827   21.284859 C.3        1 MOL1        -0.2879
     141    H7      18.850091   20.519310   21.245738 H          1 MOL1         0.0750
     142    H8      19.343089   19.125002   20.272936 H          1 MOL1         0.0750
     143    H9      18.158329   18.926547   21.583695 H          1 MOL1         0.0750
@<TRIPOS>BOND
    1     1     2    1
    2     1     3    1
    3     1     4    1
    4     4     5    1
    5     4     6    1
    6     6     7    1
    7     4     8    1
    8     8     9    1
    9     8    10    1
   10    10    11    1
   11     8    12    1
   12    12    13    1
   13    12    14    1
   14    14    15    1
   15     1    16    1
   16    14    16    1
   17    14    17    1
   18    17    18    1
   19    17    19    1
   20    17    20    1
   21    20    21    1
   22    22    23    1
   23    22    24    1
   24    22    25    1
   25    25    26    1
   26    25    27    1
   27    27    28    1
   28    25    29    1
   29    29    30    1
   30    29    31    1
   31    31    32    1
   32     3    33    1
   33    29    33    1
   34    33    34    1
   35    33    35    1
   36    35    36    1
   37    22    37    1
   38    35    37    1
   39    35    38    1
   40    38    39    1
   41    38    40    1
   42    38    41    1
   43    41    42    1
   44    43    44    1
   45    43    45    1
   46    43    46    1
   47    46    47    1
   48    46    48    1
   49    48    49    1
   50    46    50    1
   51    50    51    1
   52    50    52    1
   53    52    53    1
   54    24    54    1
   55    50    54    1
   56    54    55    1
   57    54    56    1
   58    56    57    1
   59    43    58    1
   60    56    58    1
   61    56    59    1
   62    59    60    1
   63    59    61    1
   64    59    62    1
   65    62    63    1
   66    64    65    1
   67    64    66    1
   68    64    67    1
   69    67    68    1
   70    67    69    1
   71    69    70    1
   72    67    71    1
   73    71    72    1
   74    71    73    1
   75    73    74    1
   76    45    75    1
   77    71    75    1
   78    75    76    1
   79    75    77    1
   80    77    78    1
   81    64    79    1
   82    77    79    1
   83    77    80    1
   84    80    81    1
   85    80    82    1
   86    80    83    1
   87    83    84    1
   88    85    86    1
   89    85    87    1
   90    85    88    1
   91    88    89    1
   92    88    90    1
   93    90    91    1
   94    88    92    1
   95    92    93    1
   96    92    94    1
   97    94    95    1
   98    66    96    1
   99    92    96    1
  100    96    97    1
  101    96    98    1
  102    98    99    1
  103    85   100    1
  104    98   100    1
  105    98   101    1
  106   101   102    1
  107   101   103    1
  108   101   104    1
  109   104   105    1
  110   106   107    1
  111    12   108    1
  112   106   108    1
  113   106   109    1
  114   109   110    1
  115   109   111    1
  116   111   112    1
  117   109   113    1
  118   113   114    1
  119   113   115    1
  120   115   116    1
  121    87   117    1
  122   113   117    1
  123   117   118    1
  124   117   119    1
  125   119   120    1
  126   106   121    1
  127   119   121    1
  128   119   122    1
  129   122   123    1
  130   122   124    1
  131   122   125    1
  132   125   126    1
  133   127   128    1
  134   127   129    2
  135   127   130    1
  136   130   131    1
  137   130   132    2
  138   132   133    1
  139   132   134    1
  140   134   135    1
  141   134   136    1
  142   134   137    1
  143   137   138    1
  144   137   139    1
  145   137   140    1
  146   140   141    1
  147   140   142    1
  148   140   143    1
@<TRIPOS>SUBSTRUCTURE
       1 MOL1            1 RESIDUE      1      MOL     
       2 MOL1          143 RESIDUE      1      MOL     
@<SCITEGIC>MOL_PROPERTY
feprocess Rank
SciTegic.value.IntegerValue
73

@<SCITEGIC>MOL_PROPERTY
Conf_Id
SciTegic.value.IntegerValue
286

@<SCITEGIC>MOL_PROPERTY
Probability
SciTegic.value.DoubleValue
0.01

@<SCITEGIC>MOL_PROPERTY
G
SciTegic.value.DoubleValue
500.405

@<SCITEGIC>MOL_PROPERTY
E
SciTegic.value.DoubleValue
317.947

@<SCITEGIC>MOL_PROPERTY
-TS
SciTegic.value.DoubleValue
182.459

@<SCITEGIC>MOL_PROPERTY
U+W
SciTegic.value.DoubleValue
191.858

@<SCITEGIC>MOL_PROPERTY
U
SciTegic.value.DoubleValue
276.188

@<SCITEGIC>MOL_PROPERTY
W
SciTegic.value.DoubleValue
-84.330

@<SCITEGIC>MOL_PROPERTY
W(PB)
SciTegic.value.DoubleValue
-90.359

@<SCITEGIC>MOL_PROPERTY
W(SA)
SciTegic.value.DoubleValue
6.030

@<SCITEGIC>MOL_PROPERTY
Valence
SciTegic.value.DoubleValue
151.019

@<SCITEGIC>MOL_PROPERTY
Coulomb
SciTegic.value.DoubleValue
149.154

@<SCITEGIC>MOL_PROPERTY
VdW
SciTegic.value.DoubleValue
-23.984

@<SCITEGIC>MOL_PROPERTY
VdW6
SciTegic.value.DoubleValue
-181.002

@<SCITEGIC>MOL_PROPERTY
VdW12
SciTegic.value.DoubleValue
157.017

@<SCITEGIC>MOL_PROPERTY
Bond
SciTegic.value.DoubleValue
5.094

@<SCITEGIC>MOL_PROPERTY
Angle
SciTegic.value.DoubleValue
15.022

@<SCITEGIC>MOL_PROPERTY
Pdih
SciTegic.value.DoubleValue
130.902

@<SCITEGIC>MOL_PROPERTY
Idih
SciTegic.value.DoubleValue
0.000

@<SCITEGIC>MOL_PROPERTY
Tether
SciTegic.value.DoubleValue
0.000

@<TRIPOS>MOLECULE
CD_guest-s19_fast_vm2_rndm.mol2 : feprocess host+ligand conformer 74
         143         148           2
SMALL
USER_CHARGES
 
@<TRIPOS>ATOM
       1    C1      16.172707   15.221989   21.218906 C.3        1 MOL1         0.2972
       2    H1      15.129586   15.000165   20.959901 H          1 MOL1         0.0751
       3    O1      16.280507   16.515154   21.846810 O.3        1 MOL1        -0.3740
       4    C2      16.715089   14.139438   22.198432 C.3        1 MOL1         0.1003
       5    H2      16.526014   13.165672   21.728764 H          1 MOL1         0.0783
       6    O2      16.033389   14.190844   23.461559 O.3        1 MOL1        -0.5519
       7    H3      16.348375   15.014950   23.921578 H          1 MOL1         0.3769
       8    C3      18.241354   14.261953   22.434970 C.3        1 MOL1         0.1053
       9    H4      18.419622   15.162554   23.030549 H          1 MOL1         0.0783
      10    O3      18.714047   13.111301   23.143931 O.3        1 MOL1        -0.5519
      11    H5      18.100446   13.008367   23.904930 H          1 MOL1         0.3769
      12    C4      19.019534   14.425188   21.112124 C.3        1 MOL1         0.1018
      13    H6      18.992431   13.477963   20.557515 H          1 MOL1         0.0783
      14    C5      18.395363   15.546133   20.247532 C.3        1 MOL1         0.1043
      15    H7      18.469789   16.486190   20.803797 H          1 MOL1         0.0783
      16    O4      17.002846   15.219740   20.033408 O.3        1 MOL1        -0.3740
      17    C6      19.078871   15.774570   18.875502 C.3        1 MOL1         0.0138
      18    H8      19.903203   16.485424   19.014621 H          1 MOL1         0.0794
      19    H9      18.356797   16.253039   18.200784 H          1 MOL1         0.0794
      20    O5      19.581049   14.569404   18.286621 O.3        1 MOL1        -0.5486
      21    H10     20.424767   14.356158   18.748379 H          1 MOL1         0.3769
      22    C7      14.639007   20.312620   21.466427 C.3        1 MOL1         0.2972
      23    H11     13.991035   21.193176   21.369960 H          1 MOL1         0.0751
      24    O6      16.034246   20.667441   21.402937 O.3        1 MOL1        -0.3740
      25    C8      14.366405   19.616085   22.817721 C.3        1 MOL1         0.1003
      26    H12     13.319192   19.287763   22.821278 H          1 MOL1         0.0783
      27    O7      14.572417   20.553095   23.888516 O.3        1 MOL1        -0.5519
      28    H13     15.259649   21.194910   23.584281 H          1 MOL1         0.3769
      29    C9      15.258700   18.359528   22.969114 C.3        1 MOL1         0.1053
      30    H14     16.296017   18.704503   23.060618 H          1 MOL1         0.0783
      31    O8      14.887473   17.631759   24.146060 O.3        1 MOL1        -0.5519
      32    H15     15.697086   17.127291   24.424164 H          1 MOL1         0.3769
      33    C10     15.154464   17.418689   21.734240 C.3        1 MOL1         0.1018
      34    H16     14.205091   16.872842   21.809479 H          1 MOL1         0.0783
      35    C11     15.216733   18.190883   20.374347 C.3        1 MOL1         0.1043
      36    H17     16.257351   18.497445   20.208174 H          1 MOL1         0.0783
      37    O9      14.371695   19.370758   20.413152 O.3        1 MOL1        -0.3740
      38    C12     14.757795   17.381692   19.134679 C.3        1 MOL1         0.0138
      39    H18     15.558252   16.701773   18.825273 H          1 MOL1         0.0794
      40    H19     14.607133   18.081871   18.301894 H          1 MOL1         0.0794
      41    O10     13.552562   16.645999   19.379855 O.3        1 MOL1        -0.5486
      42    H20     13.288857   16.217730   18.536559 H          1 MOL1         0.3769
      43    C13     18.548481   23.826362   20.339634 C.3        1 MOL1         0.2972
      44    H21     18.967545   24.756366   19.934823 H          1 MOL1         0.0751
      45    O11     19.594285   22.935560   20.787528 O.3        1 MOL1        -0.3740
      46    C14     17.551106   24.118729   21.497789 C.3        1 MOL1         0.1003
      47    H22     16.734465   24.714021   21.068950 H          1 MOL1         0.0783
      48    O12     18.148911   24.870080   22.564145 O.3        1 MOL1        -0.5519
      49    H23     18.830260   24.281962   22.977231 H          1 MOL1         0.3769
      50    C15     16.939740   22.802609   22.036655 C.3        1 MOL1         0.1053
      51    H24     17.741876   22.207527   22.495009 H          1 MOL1         0.0783
      52    O13     15.936836   23.104938   23.011923 O.3        1 MOL1        -0.5519
      53    H25     16.331787   23.803708   23.579636 H          1 MOL1         0.3769
      54    C16     16.319783   21.979041   20.882534 C.3        1 MOL1         0.1018
      55    H26     15.413973   22.494331   20.537046 H          1 MOL1         0.0783
      56    C17     17.297751   21.823641   19.687012 C.3        1 MOL1         0.1043
      57    H27     18.134168   21.199159   20.012373 H          1 MOL1         0.0783
      58    O14     17.802565   23.131202   19.311517 O.3        1 MOL1        -0.3740
      59    C18     16.691680   21.129199   18.439910 C.3        1 MOL1         0.0138
      60    H28     16.840896   20.046548   18.542121 H          1 MOL1         0.0794
      61    H29     17.257529   21.445976   17.553723 H          1 MOL1         0.0794
      62    O15     15.296796   21.401202   18.258745 O.3        1 MOL1        -0.5486
      63    H30     14.809182   20.831680   18.897835 H          1 MOL1         0.3769
      64    C19     23.499726   22.690276   22.146110 C.3        1 MOL1         0.2972
      65    H31     24.511809   22.861394   22.534889 H          1 MOL1         0.0751
      66    O16     23.344550   21.352421   21.635602 O.3        1 MOL1        -0.3740
      67    C20     22.443064   22.937101   23.253978 C.3        1 MOL1         0.1003
      68    H32     22.528335   23.990562   23.550968 H          1 MOL1         0.0783
      69    O17     22.667362   22.108902   24.406003 O.3        1 MOL1        -0.5519
      70    H33     23.485574   21.582792   24.232535 H          1 MOL1         0.3769
      71    C21     21.013650   22.710033   22.712256 C.3        1 MOL1         0.1053
      72    H34     20.904358   21.642197   22.481193 H          1 MOL1         0.0783
      73    O18     20.076806   23.081826   23.728025 O.3        1 MOL1        -0.5519
      74    H35     20.414049   22.643853   24.542017 H          1 MOL1         0.3769
      75    C22     20.756749   23.519619   21.414225 C.3        1 MOL1         0.1018
      76    H36     20.596714   24.572045   21.681470 H          1 MOL1         0.0783
      77    C23     21.932708   23.412819   20.399792 C.3        1 MOL1         0.1043
      78    H37     21.908225   22.409158   19.957564 H          1 MOL1         0.0783
      79    O19     23.208483   23.605013   21.067698 O.3        1 MOL1        -0.3740
      80    C24     21.833439   24.423252   19.232096 C.3        1 MOL1         0.0138
      81    H38     21.005070   24.118390   18.578400 H          1 MOL1         0.0794
      82    H39     22.755685   24.363805   18.638725 H          1 MOL1         0.0794
      83    O20     21.621598   25.764277   19.691239 O.3        1 MOL1        -0.5486
      84    H40     21.649603   26.355634   18.907582 H          1 MOL1         0.3769
      85    C25     25.218601   17.661429   21.552403 C.3        1 MOL1         0.2972
      86    H41     25.919343   16.820958   21.469046 H          1 MOL1         0.0751
      87    O21     23.860146   17.212768   21.719767 O.3        1 MOL1        -0.3740
      88    C26     25.578730   18.524823   22.783948 C.3        1 MOL1         0.1003
      89    H42     26.596201   18.908286   22.632508 H          1 MOL1         0.0783
      90    O22     25.543863   17.730006   23.980257 O.3        1 MOL1        -0.5519
      91    H43     24.857028   17.031209   23.841046 H          1 MOL1         0.3769
      92    C27     24.624306   19.736330   22.912031 C.3        1 MOL1         0.1053
      93    H44     23.623908   19.358062   23.165778 H          1 MOL1         0.0783
      94    O23     25.104372   20.586897   23.957781 O.3        1 MOL1        -0.5519
      95    H45     25.369851   19.971932   24.679306 H          1 MOL1         0.3769
      96    C28     24.519671   20.521759   21.577259 C.3        1 MOL1         0.1018
      97    H46     25.430641   21.116081   21.431584 H          1 MOL1         0.0783
      98    C29     24.317454   19.583561   20.354236 C.3        1 MOL1         0.1043
      99    H47     23.308852   19.159833   20.421102 H          1 MOL1         0.0783
     100    O24     25.279782   18.499730   20.379756 O.3        1 MOL1        -0.3740
     101    C30     24.408166   20.306964   18.987926 C.3        1 MOL1         0.0138
     102    H48     23.493211   20.897254   18.844775 H          1 MOL1         0.0794
     103    H49     24.431873   19.549953   18.192939 H          1 MOL1         0.0794
     104    O25     25.553732   21.160979   18.887225 O.3        1 MOL1        -0.5486
     105    H50     25.373835   21.958543   19.430155 H          1 MOL1         0.3769
     106    C31     21.408453   13.905992   21.091392 C.3        1 MOL1         0.2972
     107    H51     21.016131   12.911701   20.842378 H          1 MOL1         0.0751
     108    O26     20.357979   14.816754   21.464714 O.3        1 MOL1        -0.3740
     109    C32     22.389874   13.800947   22.285483 C.3        1 MOL1         0.1003
     110    H52     23.212489   13.140917   21.981038 H          1 MOL1         0.0783
     111    O27     21.734313   13.240078   23.433788 O.3        1 MOL1        -0.5519
     112    H53     20.771746   13.456077   23.351405 H          1 MOL1         0.3769
     113    C33     22.988855   15.185472   22.625155 C.3        1 MOL1         0.1053
     114    H54     22.180457   15.827698   23.001556 H          1 MOL1         0.0783
     115    O28     23.998808   15.039967   23.629599 O.3        1 MOL1        -0.5519
     116    H55     23.598155   14.449649   24.306265 H          1 MOL1         0.3769
     117    C34     23.591551   15.846255   21.362481 C.3        1 MOL1         0.1018
     118    H56     24.504148   15.301118   21.088000 H          1 MOL1         0.0783
     119    C35     22.599234   15.831245   20.164820 C.3        1 MOL1         0.1043
     120    H57     21.755217   16.483302   20.414667 H          1 MOL1         0.0783
     121    O29     22.110510   14.479284   19.965036 O.3        1 MOL1        -0.3740
     122    C36     23.178483   16.355354   18.825852 C.3        1 MOL1         0.0138
     123    H58     23.041164   17.443397   18.790258 H          1 MOL1         0.0794
     124    H59     22.588948   15.933787   18.000718 H          1 MOL1         0.0794
     125    O30     24.564796   16.045039   18.648830 O.3        1 MOL1        -0.5486
     126    H60     25.073123   16.745013   19.119088 H          1 MOL1         0.3769
     127    C1      18.381655   16.559660   25.389662 C.2        1 MOL1         0.6173
     128    O1      17.275935   16.354665   24.914643 O.co2      1 MOL1        -0.6755
     129    O2      18.710046   16.172072   26.493922 O.co2      1 MOL1        -0.6755
     130    C2      19.414828   17.266088   24.577669 C.2        1 MOL1        -0.1504
     131    H1      20.400735   17.356492   25.027076 H          1 MOL1         0.0814
     132    C3      19.175883   17.760468   23.343071 C.2        1 MOL1        -0.1394
     133    H2      18.189452   17.659723   22.906854 H          1 MOL1         0.0817
     134    C4      20.206679   18.427644   22.459369 C.3        1 MOL1        -0.1849
     135    H3      20.861487   17.656734   22.040488 H          1 MOL1         0.0736
     136    H4      20.847516   19.096909   23.049031 H          1 MOL1         0.0736
     137    C5      19.533042   19.223178   21.318764 C.3        1 MOL1        -0.1866
     138    H5      18.710431   18.645626   20.881076 H          1 MOL1         0.0738
     139    H6      19.083461   20.132175   21.739824 H          1 MOL1         0.0738
     140    C6      20.524065   19.591289   20.198416 C.3        1 MOL1        -0.2879
     141    H7      20.986768   18.694468   19.770503 H          1 MOL1         0.0750
     142    H8      20.020764   20.130712   19.387123 H          1 MOL1         0.0750
     143    H9      21.314044   20.237656   20.588549 H          1 MOL1         0.0750
@<TRIPOS>BOND
    1     1     2    1
    2     1     3    1
    3     1     4    1
    4     4     5    1
    5     4     6    1
    6     6     7    1
    7     4     8    1
    8     8     9    1
    9     8    10    1
   10    10    11    1
   11     8    12    1
   12    12    13    1
   13    12    14    1
   14    14    15    1
   15     1    16    1
   16    14    16    1
   17    14    17    1
   18    17    18    1
   19    17    19    1
   20    17    20    1
   21    20    21    1
   22    22    23    1
   23    22    24    1
   24    22    25    1
   25    25    26    1
   26    25    27    1
   27    27    28    1
   28    25    29    1
   29    29    30    1
   30    29    31    1
   31    31    32    1
   32     3    33    1
   33    29    33    1
   34    33    34    1
   35    33    35    1
   36    35    36    1
   37    22    37    1
   38    35    37    1
   39    35    38    1
   40    38    39    1
   41    38    40    1
   42    38    41    1
   43    41    42    1
   44    43    44    1
   45    43    45    1
   46    43    46    1
   47    46    47    1
   48    46    48    1
   49    48    49    1
   50    46    50    1
   51    50    51    1
   52    50    52    1
   53    52    53    1
   54    24    54    1
   55    50    54    1
   56    54    55    1
   57    54    56    1
   58    56    57    1
   59    43    58    1
   60    56    58    1
   61    56    59    1
   62    59    60    1
   63    59    61    1
   64    59    62    1
   65    62    63    1
   66    64    65    1
   67    64    66    1
   68    64    67    1
   69    67    68    1
   70    67    69    1
   71    69    70    1
   72    67    71    1
   73    71    72    1
   74    71    73    1
   75    73    74    1
   76    45    75    1
   77    71    75    1
   78    75    76    1
   79    75    77    1
   80    77    78    1
   81    64    79    1
   82    77    79    1
   83    77    80    1
   84    80    81    1
   85    80    82    1
   86    80    83    1
   87    83    84    1
   88    85    86    1
   89    85    87    1
   90    85    88    1
   91    88    89    1
   92    88    90    1
   93    90    91    1
   94    88    92    1
   95    92    93    1
   96    92    94    1
   97    94    95    1
   98    66    96    1
   99    92    96    1
  100    96    97    1
  101    96    98    1
  102    98    99    1
  103    85   100    1
  104    98   100    1
  105    98   101    1
  106   101   102    1
  107   101   103    1
  108   101   104    1
  109   104   105    1
  110   106   107    1
  111    12   108    1
  112   106   108    1
  113   106   109    1
  114   109   110    1
  115   109   111    1
  116   111   112    1
  117   109   113    1
  118   113   114    1
  119   113   115    1
  120   115   116    1
  121    87   117    1
  122   113   117    1
  123   117   118    1
  124   117   119    1
  125   119   120    1
  126   106   121    1
  127   119   121    1
  128   119   122    1
  129   122   123    1
  130   122   124    1
  131   122   125    1
  132   125   126    1
  133   127   128    1
  134   127   129    2
  135   127   130    1
  136   130   131    1
  137   130   132    2
  138   132   133    1
  139   132   134    1
  140   134   135    1
  141   134   136    1
  142   134   137    1
  143   137   138    1
  144   137   139    1
  145   137   140    1
  146   140   141    1
  147   140   142    1
  148   140   143    1
@<TRIPOS>SUBSTRUCTURE
       1 MOL1            1 RESIDUE      1      MOL     
       2 MOL1          143 RESIDUE      1      MOL     
@<SCITEGIC>MOL_PROPERTY
feprocess Rank
SciTegic.value.IntegerValue
74

@<SCITEGIC>MOL_PROPERTY
Conf_Id
SciTegic.value.IntegerValue
118

@<SCITEGIC>MOL_PROPERTY
Probability
SciTegic.value.DoubleValue
0.01

@<SCITEGIC>MOL_PROPERTY
G
SciTegic.value.DoubleValue
500.494

@<SCITEGIC>MOL_PROPERTY
E
SciTegic.value.DoubleValue
317.835

@<SCITEGIC>MOL_PROPERTY
-TS
SciTegic.value.DoubleValue
182.659

@<SCITEGIC>MOL_PROPERTY
U+W
SciTegic.value.DoubleValue
191.747

@<SCITEGIC>MOL_PROPERTY
U
SciTegic.value.DoubleValue
274.062

@<SCITEGIC>MOL_PROPERTY
W
SciTegic.value.DoubleValue
-82.315

@<SCITEGIC>MOL_PROPERTY
W(PB)
SciTegic.value.DoubleValue
-88.398

@<SCITEGIC>MOL_PROPERTY
W(SA)
SciTegic.value.DoubleValue
6.083

@<SCITEGIC>MOL_PROPERTY
Valence
SciTegic.value.DoubleValue
151.863

@<SCITEGIC>MOL_PROPERTY
Coulomb
SciTegic.value.DoubleValue
145.929

@<SCITEGIC>MOL_PROPERTY
VdW
SciTegic.value.DoubleValue
-23.731

@<SCITEGIC>MOL_PROPERTY
VdW6
SciTegic.value.DoubleValue
-180.814

@<SCITEGIC>MOL_PROPERTY
VdW12
SciTegic.value.DoubleValue
157.083

@<SCITEGIC>MOL_PROPERTY
Bond
SciTegic.value.DoubleValue
5.111

@<SCITEGIC>MOL_PROPERTY
Angle
SciTegic.value.DoubleValue
14.488

@<SCITEGIC>MOL_PROPERTY
Pdih
SciTegic.value.DoubleValue
132.256

@<SCITEGIC>MOL_PROPERTY
Idih
SciTegic.value.DoubleValue
0.008

@<SCITEGIC>MOL_PROPERTY
Tether
SciTegic.value.DoubleValue
0.000

@<TRIPOS>MOLECULE
CD_guest-s19_fast_vm2_rndm.mol2 : feprocess host+ligand conformer 75
         143         148           2
SMALL
USER_CHARGES
 
@<TRIPOS>ATOM
       1    C1      16.405933   15.323692   19.995930 C.3        1 MOL1         0.2972
       2    H1      15.490456   15.167349   19.410857 H          1 MOL1         0.0751
       3    O1      16.491302   16.667131   20.510551 O.3        1 MOL1        -0.3740
       4    C2      16.495902   14.332512   21.180871 C.3        1 MOL1         0.1003
       5    H2      16.555658   13.323698   20.751900 H          1 MOL1         0.0783
       6    O2      15.336207   14.408464   22.024148 O.3        1 MOL1        -0.5519
       7    H3      15.255357   15.347968   22.328726 H          1 MOL1         0.3769
       8    C3      17.788127   14.574874   22.001489 C.3        1 MOL1         0.1053
       9    H4      17.695893   15.544750   22.511390 H          1 MOL1         0.0783
      10    O3      17.902034   13.524608   22.967192 O.3        1 MOL1        -0.5519
      11    H5      17.016990   13.467619   23.390475 H          1 MOL1         0.3769
      12    C4      19.055510   14.624352   21.096369 C.3        1 MOL1         0.1018
      13    H6      19.353852   13.596988   20.853513 H          1 MOL1         0.0783
      14    C5      18.836349   15.427047   19.778688 C.3        1 MOL1         0.1043
      15    H7      18.828882   16.492693   20.033226 H          1 MOL1         0.0783
      16    O4      17.566301   15.082026   19.175635 O.3        1 MOL1        -0.3740
      17    C6      19.945073   15.238080   18.712873 C.3        1 MOL1         0.0138
      18    H8      20.783418   15.899112   18.960422 H          1 MOL1         0.0794
      19    H9      19.556471   15.578040   17.743548 H          1 MOL1         0.0794
      20    O5      20.404225   13.883917   18.610549 O.3        1 MOL1        -0.5486
      21    H10     20.829451   13.649214   19.462966 H          1 MOL1         0.3769
      22    C7      14.616174   20.279472   20.912807 C.3        1 MOL1         0.2972
      23    H11     13.954058   21.152995   20.947742 H          1 MOL1         0.0751
      24    O6      16.008677   20.669871   20.972723 O.3        1 MOL1        -0.3740
      25    C8      14.275255   19.276031   22.044904 C.3        1 MOL1         0.1003
      26    H12     13.265137   18.897625   21.840118 H          1 MOL1         0.0783
      27    O7      14.271329   19.897603   23.337828 O.3        1 MOL1        -0.5519
      28    H13     15.213196   20.123106   23.545072 H          1 MOL1         0.3769
      29    C9      15.244962   18.070338   21.999222 C.3        1 MOL1         0.1053
      30    H14     16.258911   18.426780   22.228299 H          1 MOL1         0.0783
      31    O8      14.839624   17.103292   22.973566 O.3        1 MOL1        -0.5519
      32    H15     14.695944   17.615938   23.799861 H          1 MOL1         0.3769
      33    C10     15.269471   17.423057   20.589511 C.3        1 MOL1         0.1018
      34    H16     14.381658   16.785936   20.481783 H          1 MOL1         0.0783
      35    C11     15.325459   18.465775   19.435050 C.3        1 MOL1         0.1043
      36    H17     16.344257   18.866176   19.398325 H          1 MOL1         0.0783
      37    O9      14.411613   19.564673   19.677166 O.3        1 MOL1        -0.3740
      38    C12     15.024798   17.863812   18.041976 C.3        1 MOL1         0.0138
      39    H18     15.868305   17.222817   17.751316 H          1 MOL1         0.0794
      40    H19     14.970945   18.682129   17.311505 H          1 MOL1         0.0794
      41    O10     13.809708   17.103752   18.031773 O.3        1 MOL1        -0.5486
      42    H20     13.646169   16.816082   17.107057 H          1 MOL1         0.3769
      43    C13     18.639241   23.593683   22.366746 C.3        1 MOL1         0.2972
      44    H21     19.083043   24.476142   22.843742 H          1 MOL1         0.0751
      45    O11     19.571607   22.942531   21.478179 O.3        1 MOL1        -0.3740
      46    C14     18.164216   22.572730   23.434437 C.3        1 MOL1         0.1003
      47    H22     17.396002   23.070283   24.040106 H          1 MOL1         0.0783
      48    O12     19.241771   22.177034   24.293958 O.3        1 MOL1        -0.5519
      49    H23     19.958580   22.846329   24.199956 H          1 MOL1         0.3769
      50    C15     17.511173   21.344600   22.750544 C.3        1 MOL1         0.1053
      51    H24     18.270518   20.848432   22.135104 H          1 MOL1         0.0783
      52    O13     17.025836   20.430280   23.739871 O.3        1 MOL1        -0.5519
      53    H25     17.808761   19.865358   23.979387 H          1 MOL1         0.3769
      54    C16     16.363044   21.793333   21.808423 C.3        1 MOL1         0.1018
      55    H26     15.517965   22.135340   22.419087 H          1 MOL1         0.0783
      56    C17     16.822854   22.930496   20.852267 C.3        1 MOL1         0.1043
      57    H27     17.533861   22.500742   20.133658 H          1 MOL1         0.0783
      58    O14     17.482178   23.984792   21.597624 O.3        1 MOL1        -0.3740
      59    C18     15.667220   23.561524   20.037620 C.3        1 MOL1         0.0138
      60    H28     15.259178   22.802084   19.356826 H          1 MOL1         0.0794
      61    H29     16.082363   24.363682   19.413186 H          1 MOL1         0.0794
      62    O15     14.625290   24.084676   20.872925 O.3        1 MOL1        -0.5486
      63    H30     14.200391   23.337861   21.341685 H          1 MOL1         0.3769
      64    C19     23.716190   22.746710   20.996412 C.3        1 MOL1         0.2972
      65    H31     24.772929   22.952972   20.785621 H          1 MOL1         0.0751
      66    O16     23.469898   21.343116   21.202950 O.3        1 MOL1        -0.3740
      67    C20     23.260199   23.502863   22.268292 C.3        1 MOL1         0.1003
      68    H32     23.372152   24.575886   22.064726 H          1 MOL1         0.0783
      69    O17     24.075249   23.158773   23.399277 O.3        1 MOL1        -0.5519
      70    H33     24.304300   22.198285   23.318207 H          1 MOL1         0.3769
      71    C21     21.764573   23.234952   22.571483 C.3        1 MOL1         0.1053
      72    H34     21.649358   22.173565   22.835464 H          1 MOL1         0.0783
      73    O18     21.386620   24.060376   23.678751 O.3        1 MOL1        -0.5519
      74    H35     22.154298   24.015327   24.294481 H          1 MOL1         0.3769
      75    C22     20.881810   23.531588   21.323466 C.3        1 MOL1         0.1018
      76    H36     20.811544   24.617348   21.180939 H          1 MOL1         0.0783
      77    C23     21.471114   22.881399   20.041546 C.3        1 MOL1         0.1043
      78    H37     21.357957   21.798608   20.148963 H          1 MOL1         0.0783
      79    O19     22.880986   23.194020   19.907772 O.3        1 MOL1        -0.3740
      80    C24     20.738132   23.281296   18.737600 C.3        1 MOL1         0.0138
      81    H38     19.765458   22.770980   18.714151 H          1 MOL1         0.0794
      82    H39     21.318112   22.908777   17.882921 H          1 MOL1         0.0794
      83    O20     20.546283   24.696540   18.624484 O.3        1 MOL1        -0.5486
      84    H40     19.852900   24.950702   19.270620 H          1 MOL1         0.3769
      85    C25     25.045951   17.509773   20.986060 C.3        1 MOL1         0.2972
      86    H41     25.663337   16.616686   20.826210 H          1 MOL1         0.0751
      87    O21     23.674495   17.152948   21.255878 O.3        1 MOL1        -0.3740
      88    C26     25.626247   18.399693   22.122035 C.3        1 MOL1         0.1003
      89    H42     26.622315   18.721180   21.790792 H          1 MOL1         0.0783
      90    O22     25.768701   17.687671   23.359920 O.3        1 MOL1        -0.5519
      91    H43     24.852466   17.499765   23.685545 H          1 MOL1         0.3769
      92    C27     24.767340   19.672735   22.321454 C.3        1 MOL1         0.1053
      93    H44     23.780610   19.371588   22.698928 H          1 MOL1         0.0783
      94    O23     25.408602   20.531654   23.269283 O.3        1 MOL1        -0.5519
      95    H45     25.682044   19.942353   24.007193 H          1 MOL1         0.3769
      96    C28     24.559864   20.428748   20.985677 C.3        1 MOL1         0.1018
      97    H46     25.492279   20.945192   20.724177 H          1 MOL1         0.0783
      98    C29     24.143243   19.475503   19.830697 C.3        1 MOL1         0.1043
      99    H47     23.119274   19.131898   20.025411 H          1 MOL1         0.0783
     100    O24     25.032215   18.326990   19.793012 O.3        1 MOL1        -0.3740
     101    C30     24.125885   20.146051   18.435169 C.3        1 MOL1         0.0138
     102    H48     23.248142   20.803572   18.373288 H          1 MOL1         0.0794
     103    H49     23.995707   19.362751   17.676708 H          1 MOL1         0.0794
     104    O25     25.314606   20.898849   18.165568 O.3        1 MOL1        -0.5486
     105    H50     25.189081   21.792979   18.548653 H          1 MOL1         0.3769
     106    C31     20.911013   14.521172   22.700342 C.3        1 MOL1         0.2972
     107    H51     20.328668   13.722866   23.175024 H          1 MOL1         0.0751
     108    O26     20.094876   15.318757   21.816887 O.3        1 MOL1        -0.3740
     109    C32     21.513338   15.442317   23.788571 C.3        1 MOL1         0.1003
     110    H52     22.175520   14.823986   24.407838 H          1 MOL1         0.0783
     111    O27     20.478086   15.999658   24.620389 O.3        1 MOL1        -0.5519
     112    H53     20.049266   16.751574   24.135638 H          1 MOL1         0.3769
     113    C33     22.366145   16.555258   23.140633 C.3        1 MOL1         0.1053
     114    H54     21.680106   17.189781   22.575935 H          1 MOL1         0.0783
     115    O28     23.029384   17.325992   24.149844 O.3        1 MOL1        -0.5519
     116    H55     22.366180   18.011042   24.435839 H          1 MOL1         0.3769
     117    C34     23.393416   16.023734   22.111900 C.3        1 MOL1         0.1018
     118    H56     24.284056   15.655421   22.636710 H          1 MOL1         0.0783
     119    C35     22.808118   14.915723   21.191083 C.3        1 MOL1         0.1043
     120    H57     22.166194   15.413254   20.458023 H          1 MOL1         0.0783
     121    O29     22.005643   13.965165   21.938029 O.3        1 MOL1        -0.3740
     122    C36     23.886158   14.141378   20.396598 C.3        1 MOL1         0.0138
     123    H58     24.318555   14.817648   19.646863 H          1 MOL1         0.0794
     124    H59     23.400299   13.320069   19.852988 H          1 MOL1         0.0794
     125    O30     24.921162   13.632536   21.246522 O.3        1 MOL1        -0.5486
     126    H60     25.527645   13.096166   20.690416 H          1 MOL1         0.3769
     127    C1      20.238736   19.139928   23.326078 C.2        1 MOL1         0.6173
     128    O1      19.214271   18.553670   23.627364 O.co2      1 MOL1        -0.6755
     129    O2      21.118052   19.391966   24.127314 O.co2      1 MOL1        -0.6755
     130    C2      20.561136   19.353397   21.888157 C.2        1 MOL1        -0.1504
     131    H1      21.528706   19.799604   21.691430 H          1 MOL1         0.0814
     132    C3      19.768159   18.968643   20.863554 C.2        1 MOL1        -0.1394
     133    H2      18.801401   18.504268   21.057636 H          1 MOL1         0.0817
     134    C4      20.171256   19.096088   19.409080 C.3        1 MOL1        -0.1849
     135    H3      20.758765   18.218021   19.114890 H          1 MOL1         0.0736
     136    H4      20.828903   19.959050   19.270782 H          1 MOL1         0.0736
     137    C5      18.952118   19.236068   18.479142 C.3        1 MOL1        -0.1866
     138    H5      18.338928   18.327855   18.542000 H          1 MOL1         0.0738
     139    H6      18.328540   20.076596   18.814363 H          1 MOL1         0.0738
     140    C6      19.377381   19.461384   17.015269 C.3        1 MOL1        -0.2879
     141    H7      19.982538   18.621849   16.649205 H          1 MOL1         0.0750
     142    H8      18.496334   19.552624   16.367133 H          1 MOL1         0.0750
     143    H9      19.968812   20.380635   16.914869 H          1 MOL1         0.0750
@<TRIPOS>BOND
    1     1     2    1
    2     1     3    1
    3     1     4    1
    4     4     5    1
    5     4     6    1
    6     6     7    1
    7     4     8    1
    8     8     9    1
    9     8    10    1
   10    10    11    1
   11     8    12    1
   12    12    13    1
   13    12    14    1
   14    14    15    1
   15     1    16    1
   16    14    16    1
   17    14    17    1
   18    17    18    1
   19    17    19    1
   20    17    20    1
   21    20    21    1
   22    22    23    1
   23    22    24    1
   24    22    25    1
   25    25    26    1
   26    25    27    1
   27    27    28    1
   28    25    29    1
   29    29    30    1
   30    29    31    1
   31    31    32    1
   32     3    33    1
   33    29    33    1
   34    33    34    1
   35    33    35    1
   36    35    36    1
   37    22    37    1
   38    35    37    1
   39    35    38    1
   40    38    39    1
   41    38    40    1
   42    38    41    1
   43    41    42    1
   44    43    44    1
   45    43    45    1
   46    43    46    1
   47    46    47    1
   48    46    48    1
   49    48    49    1
   50    46    50    1
   51    50    51    1
   52    50    52    1
   53    52    53    1
   54    24    54    1
   55    50    54    1
   56    54    55    1
   57    54    56    1
   58    56    57    1
   59    43    58    1
   60    56    58    1
   61    56    59    1
   62    59    60    1
   63    59    61    1
   64    59    62    1
   65    62    63    1
   66    64    65    1
   67    64    66    1
   68    64    67    1
   69    67    68    1
   70    67    69    1
   71    69    70    1
   72    67    71    1
   73    71    72    1
   74    71    73    1
   75    73    74    1
   76    45    75    1
   77    71    75    1
   78    75    76    1
   79    75    77    1
   80    77    78    1
   81    64    79    1
   82    77    79    1
   83    77    80    1
   84    80    81    1
   85    80    82    1
   86    80    83    1
   87    83    84    1
   88    85    86    1
   89    85    87    1
   90    85    88    1
   91    88    89    1
   92    88    90    1
   93    90    91    1
   94    88    92    1
   95    92    93    1
   96    92    94    1
   97    94    95    1
   98    66    96    1
   99    92    96    1
  100    96    97    1
  101    96    98    1
  102    98    99    1
  103    85   100    1
  104    98   100    1
  105    98   101    1
  106   101   102    1
  107   101   103    1
  108   101   104    1
  109   104   105    1
  110   106   107    1
  111    12   108    1
  112   106   108    1
  113   106   109    1
  114   109   110    1
  115   109   111    1
  116   111   112    1
  117   109   113    1
  118   113   114    1
  119   113   115    1
  120   115   116    1
  121    87   117    1
  122   113   117    1
  123   117   118    1
  124   117   119    1
  125   119   120    1
  126   106   121    1
  127   119   121    1
  128   119   122    1
  129   122   123    1
  130   122   124    1
  131   122   125    1
  132   125   126    1
  133   127   128    1
  134   127   129    2
  135   127   130    1
  136   130   131    1
  137   130   132    2
  138   132   133    1
  139   132   134    1
  140   134   135    1
  141   134   136    1
  142   134   137    1
  143   137   138    1
  144   137   139    1
  145   137   140    1
  146   140   141    1
  147   140   142    1
  148   140   143    1
@<TRIPOS>SUBSTRUCTURE
       1 MOL1            1 RESIDUE      1      MOL     
       2 MOL1          143 RESIDUE      1      MOL     
@<SCITEGIC>MOL_PROPERTY
feprocess Rank
SciTegic.value.IntegerValue
75

@<SCITEGIC>MOL_PROPERTY
Conf_Id
SciTegic.value.IntegerValue
382

@<SCITEGIC>MOL_PROPERTY
Probability
SciTegic.value.DoubleValue
0.01

@<SCITEGIC>MOL_PROPERTY
G
SciTegic.value.DoubleValue
500.516

@<SCITEGIC>MOL_PROPERTY
E
SciTegic.value.DoubleValue
317.942

@<SCITEGIC>MOL_PROPERTY
-TS
SciTegic.value.DoubleValue
182.574

@<SCITEGIC>MOL_PROPERTY
U+W
SciTegic.value.DoubleValue
191.854

@<SCITEGIC>MOL_PROPERTY
U
SciTegic.value.DoubleValue
265.136

@<SCITEGIC>MOL_PROPERTY
W
SciTegic.value.DoubleValue
-73.283

@<SCITEGIC>MOL_PROPERTY
W(PB)
SciTegic.value.DoubleValue
-79.265

@<SCITEGIC>MOL_PROPERTY
W(SA)
SciTegic.value.DoubleValue
5.983

@<SCITEGIC>MOL_PROPERTY
Valence
SciTegic.value.DoubleValue
148.315

@<SCITEGIC>MOL_PROPERTY
Coulomb
SciTegic.value.DoubleValue
140.424

@<SCITEGIC>MOL_PROPERTY
VdW
SciTegic.value.DoubleValue
-23.603

@<SCITEGIC>MOL_PROPERTY
VdW6
SciTegic.value.DoubleValue
-183.048

@<SCITEGIC>MOL_PROPERTY
VdW12
SciTegic.value.DoubleValue
159.445

@<SCITEGIC>MOL_PROPERTY
Bond
SciTegic.value.DoubleValue
5.205

@<SCITEGIC>MOL_PROPERTY
Angle
SciTegic.value.DoubleValue
17.113

@<SCITEGIC>MOL_PROPERTY
Pdih
SciTegic.value.DoubleValue
125.900

@<SCITEGIC>MOL_PROPERTY
Idih
SciTegic.value.DoubleValue
0.097

@<SCITEGIC>MOL_PROPERTY
Tether
SciTegic.value.DoubleValue
0.000

@<TRIPOS>MOLECULE
CD_guest-s19_fast_vm2_rndm.mol2 : feprocess host+ligand conformer 76
         143         148           2
SMALL
USER_CHARGES
 
@<TRIPOS>ATOM
       1    C1      16.266132   15.268268   20.097956 C.3        1 MOL1         0.2972
       2    H1      15.300017   15.170001   19.586740 H          1 MOL1         0.0751
       3    O1      16.467711   16.611584   20.595093 O.3        1 MOL1        -0.3740
       4    C2      16.417783   14.219396   21.232304 C.3        1 MOL1         0.1003
       5    H2      16.474246   13.235135   20.749676 H          1 MOL1         0.0783
       6    O2      15.283062   14.213167   22.108633 O.3        1 MOL1        -0.5519
       7    H3      15.345846   15.028162   22.663193 H          1 MOL1         0.3769
       8    C3      17.763614   14.449837   21.971486 C.3        1 MOL1         0.1053
       9    H4      17.751159   15.452809   22.417657 H          1 MOL1         0.0783
      10    O3      17.962707   13.472940   22.999868 O.3        1 MOL1        -0.5519
      11    H5      17.884400   13.972234   23.855071 H          1 MOL1         0.3769
      12    C4      18.940578   14.391408   20.960886 C.3        1 MOL1         0.1018
      13    H6      19.072688   13.343892   20.660223 H          1 MOL1         0.0783
      14    C5      18.682726   15.254485   19.685719 C.3        1 MOL1         0.1043
      15    H7      18.761891   16.311414   19.966127 H          1 MOL1         0.0783
      16    O4      17.346021   14.998741   19.177915 O.3        1 MOL1        -0.3740
      17    C6      19.680274   15.026955   18.519296 C.3        1 MOL1         0.0138
      18    H8      20.500004   15.748351   18.610991 H          1 MOL1         0.0794
      19    H9      19.169538   15.260961   17.575625 H          1 MOL1         0.0794
      20    O5      20.206116   13.694968   18.468595 O.3        1 MOL1        -0.5486
      21    H10     20.829823   13.597851   19.226227 H          1 MOL1         0.3769
      22    C7      15.058711   20.143305   22.066478 C.3        1 MOL1         0.2972
      23    H11     14.493674   20.994309   22.467091 H          1 MOL1         0.0751
      24    O6      16.397650   20.543458   21.702003 O.3        1 MOL1        -0.3740
      25    C8      15.092847   19.012658   23.126864 C.3        1 MOL1         0.1003
      26    H12     14.048830   18.747410   23.337953 H          1 MOL1         0.0783
      27    O7      15.708677   19.471323   24.343547 O.3        1 MOL1        -0.5519
      28    H13     16.117905   18.693050   24.799989 H          1 MOL1         0.3769
      29    C9      15.792768   17.738519   22.600969 C.3        1 MOL1         0.1053
      30    H14     16.874463   17.931061   22.589037 H          1 MOL1         0.0783
      31    O8      15.483901   16.654365   23.484064 O.3        1 MOL1        -0.5519
      32    H15     16.017552   16.777926   24.311654 H          1 MOL1         0.3769
      33    C10     15.354869   17.333856   21.165838 C.3        1 MOL1         0.1018
      34    H16     14.447976   16.717613   21.223690 H          1 MOL1         0.0783
      35    C11     15.116016   18.540357   20.217609 C.3        1 MOL1         0.1043
      36    H17     16.103166   18.897009   19.907290 H          1 MOL1         0.0783
      37    O9      14.416239   19.623063   20.882546 O.3        1 MOL1        -0.3740
      38    C12     14.343707   18.162331   18.930678 C.3        1 MOL1         0.0138
      39    H18     14.986643   17.516862   18.317063 H          1 MOL1         0.0794
      40    H19     14.151840   19.075387   18.351647 H          1 MOL1         0.0794
      41    O10     13.112176   17.488795   19.217810 O.3        1 MOL1        -0.5486
      42    H20     12.647834   17.339204   18.365391 H          1 MOL1         0.3769
      43    C13     18.566379   23.996606   20.875107 C.3        1 MOL1         0.2972
      44    H21     18.936599   24.970017   20.528217 H          1 MOL1         0.0751
      45    O11     19.621328   23.184570   21.420550 O.3        1 MOL1        -0.3740
      46    C14     17.495875   24.169239   21.978900 C.3        1 MOL1         0.1003
      47    H22     16.668734   24.743337   21.541461 H          1 MOL1         0.0783
      48    O12     18.028069   24.891907   23.101636 O.3        1 MOL1        -0.5519
      49    H23     18.889986   24.467670   23.344212 H          1 MOL1         0.3769
      50    C15     16.933841   22.797648   22.435387 C.3        1 MOL1         0.1053
      51    H24     17.718637   22.269997   22.995230 H          1 MOL1         0.0783
      52    O13     15.806477   23.040395   23.283217 O.3        1 MOL1        -0.5519
      53    H25     16.122020   23.682896   23.955639 H          1 MOL1         0.3769
      54    C16     16.517793   21.905234   21.231426 C.3        1 MOL1         0.1018
      55    H26     15.562183   22.281510   20.844315 H          1 MOL1         0.0783
      56    C17     17.563781   21.913938   20.077558 C.3        1 MOL1         0.1043
      57    H27     18.446903   21.351153   20.399817 H          1 MOL1         0.0783
      58    O14     17.953273   23.276843   19.785098 O.3        1 MOL1        -0.3740
      59    C18     17.080377   21.256887   18.759055 C.3        1 MOL1         0.0138
      60    H28     17.325879   20.188616   18.793603 H          1 MOL1         0.0794
      61    H29     17.656852   21.680419   17.925815 H          1 MOL1         0.0794
      62    O15     15.677087   21.430039   18.520706 O.3        1 MOL1        -0.5486
      63    H30     15.195387   20.974167   19.247970 H          1 MOL1         0.3769
      64    C19     23.669290   22.842794   21.910334 C.3        1 MOL1         0.2972
      65    H31     24.754974   22.955907   22.026377 H          1 MOL1         0.0751
      66    O16     23.285570   21.456642   21.834454 O.3        1 MOL1        -0.3740
      67    C20     22.943451   23.473786   23.121546 C.3        1 MOL1         0.1003
      68    H32     23.182480   24.545135   23.134006 H          1 MOL1         0.0783
      69    O17     23.397056   22.867544   24.342128 O.3        1 MOL1        -0.5519
      70    H33     23.712900   21.961856   24.105932 H          1 MOL1         0.3769
      71    C21     21.411557   23.323145   22.979103 C.3        1 MOL1         0.1053
      72    H34     21.170307   22.258136   23.074557 H          1 MOL1         0.0783
      73    O18     20.756536   24.054404   24.020856 O.3        1 MOL1        -0.5519
      74    H35     21.231252   23.801953   24.843923 H          1 MOL1         0.3769
      75    C22     20.905115   23.809271   21.598440 C.3        1 MOL1         0.1018
      76    H36     20.836115   24.904998   21.616716 H          1 MOL1         0.0783
      77    C23     21.796234   23.339942   20.413049 C.3        1 MOL1         0.1043
      78    H37     21.587999   22.275269   20.254864 H          1 MOL1         0.0783
      79    O19     23.206233   23.505042   20.715773 O.3        1 MOL1        -0.3740
      80    C24     21.492724   24.066554   19.081073 C.3        1 MOL1         0.0138
      81    H38     20.513397   23.730314   18.714782 H          1 MOL1         0.0794
      82    H39     22.240389   23.761734   18.336454 H          1 MOL1         0.0794
      83    O20     21.492268   25.491409   19.232514 O.3        1 MOL1        -0.5486
      84    H40     21.365254   25.885728   18.342074 H          1 MOL1         0.3769
      85    C25     24.859478   17.676446   21.013987 C.3        1 MOL1         0.2972
      86    H41     25.489841   16.842815   20.678454 H          1 MOL1         0.0751
      87    O21     23.555619   17.225434   21.424899 O.3        1 MOL1        -0.3740
      88    C26     25.512575   18.433725   22.201815 C.3        1 MOL1         0.1003
      89    H42     26.477084   18.821456   21.849156 H          1 MOL1         0.0783
      90    O22     25.740919   17.561759   23.319746 O.3        1 MOL1        -0.5519
      91    H43     24.875805   17.130765   23.539242 H          1 MOL1         0.3769
      92    C27     24.640303   19.642234   22.626074 C.3        1 MOL1         0.1053
      93    H44     23.696715   19.257591   23.036787 H          1 MOL1         0.0783
      94    O23     25.326180   20.407333   23.623030 O.3        1 MOL1        -0.5519
      95    H45     25.680919   19.744214   24.256100 H          1 MOL1         0.3769
      96    C28     24.307374   20.538590   21.407758 C.3        1 MOL1         0.1018
      97    H46     25.222431   21.057282   21.092831 H          1 MOL1         0.0783
      98    C29     23.753848   19.710331   20.214609 C.3        1 MOL1         0.1043
      99    H47     22.776508   19.300612   20.501398 H          1 MOL1         0.0783
     100    O24     24.671990   18.623128   19.938633 O.3        1 MOL1        -0.3740
     101    C30     23.539684   20.510462   18.902996 C.3        1 MOL1         0.0138
     102    H48     22.511050   20.889910   18.889549 H          1 MOL1         0.0794
     103    H49     23.627580   19.818342   18.054939 H          1 MOL1         0.0794
     104    O25     24.458031   21.598765   18.742816 O.3        1 MOL1        -0.5486
     105    H50     24.184400   22.304997   19.374003 H          1 MOL1         0.3769
     106    C31     21.135390   13.929137   21.913592 C.3        1 MOL1         0.2972
     107    H51     20.703510   12.931228   22.064856 H          1 MOL1         0.0751
     108    O26     20.107131   14.904376   21.642024 O.3        1 MOL1        -0.3740
     109    C32     21.920756   14.349246   23.179646 C.3        1 MOL1         0.1003
     110    H52     22.740209   13.629377   23.304175 H          1 MOL1         0.0783
     111    O27     21.090675   14.307093   24.352744 O.3        1 MOL1        -0.5519
     112    H53     20.201952   14.666447   24.118562 H          1 MOL1         0.3769
     113    C33     22.554359   15.746380   22.993733 C.3        1 MOL1         0.1053
     114    H54     21.749694   16.482515   22.895709 H          1 MOL1         0.0783
     115    O28     23.364657   16.056942   24.131693 O.3        1 MOL1        -0.5519
     116    H55     22.817466   15.803473   24.908404 H          1 MOL1         0.3769
     117    C34     23.398084   15.821089   21.701006 C.3        1 MOL1         0.1018
     118    H56     24.359046   15.317215   21.870297 H          1 MOL1         0.0783
     119    C35     22.662368   15.206530   20.477061 C.3        1 MOL1         0.1043
     120    H57     21.868579   15.909375   20.200079 H          1 MOL1         0.0783
     121    O29     22.061371   13.924689   20.805046 O.3        1 MOL1        -0.3740
     122    C36     23.570454   15.022323   19.237720 C.3        1 MOL1         0.0138
     123    H58     23.811856   16.013913   18.831443 H          1 MOL1         0.0794
     124    H59     23.007525   14.482387   18.464591 H          1 MOL1         0.0794
     125    O30     24.778152   14.320370   19.556302 O.3        1 MOL1        -0.5486
     126    H60     25.265919   14.169996   18.717279 H          1 MOL1         0.3769
     127    C1      18.141316   16.649821   25.104829 C.2        1 MOL1         0.6173
     128    O1      18.146816   15.434103   25.048928 O.co2      1 MOL1        -0.6755
     129    O2      17.206780   17.298657   25.542831 O.co2      1 MOL1        -0.6755
     130    C2      19.264654   17.351363   24.439609 C.2        1 MOL1        -0.1504
     131    H1      20.018463   16.708170   24.010736 H          1 MOL1         0.0814
     132    C3      19.371719   18.691740   24.316739 C.2        1 MOL1        -0.1394
     133    H2      18.612430   19.356888   24.726916 H          1 MOL1         0.0817
     134    C4      20.512533   19.365625   23.585008 C.3        1 MOL1        -0.1849
     135    H3      21.393085   18.711953   23.546902 H          1 MOL1         0.0736
     136    H4      20.818309   20.257657   24.145876 H          1 MOL1         0.0736
     137    C5      20.102752   19.777625   22.155852 C.3        1 MOL1        -0.1866
     138    H5      19.198744   20.395294   22.216605 H          1 MOL1         0.0738
     139    H6      20.886804   20.404168   21.716739 H          1 MOL1         0.0738
     140    C6      19.850701   18.571866   21.227188 C.3        1 MOL1        -0.2879
     141    H7      19.025724   17.955459   21.604295 H          1 MOL1         0.0750
     142    H8      19.585923   18.909109   20.217615 H          1 MOL1         0.0750
     143    H9      20.744033   17.939711   21.155030 H          1 MOL1         0.0750
@<TRIPOS>BOND
    1     1     2    1
    2     1     3    1
    3     1     4    1
    4     4     5    1
    5     4     6    1
    6     6     7    1
    7     4     8    1
    8     8     9    1
    9     8    10    1
   10    10    11    1
   11     8    12    1
   12    12    13    1
   13    12    14    1
   14    14    15    1
   15     1    16    1
   16    14    16    1
   17    14    17    1
   18    17    18    1
   19    17    19    1
   20    17    20    1
   21    20    21    1
   22    22    23    1
   23    22    24    1
   24    22    25    1
   25    25    26    1
   26    25    27    1
   27    27    28    1
   28    25    29    1
   29    29    30    1
   30    29    31    1
   31    31    32    1
   32     3    33    1
   33    29    33    1
   34    33    34    1
   35    33    35    1
   36    35    36    1
   37    22    37    1
   38    35    37    1
   39    35    38    1
   40    38    39    1
   41    38    40    1
   42    38    41    1
   43    41    42    1
   44    43    44    1
   45    43    45    1
   46    43    46    1
   47    46    47    1
   48    46    48    1
   49    48    49    1
   50    46    50    1
   51    50    51    1
   52    50    52    1
   53    52    53    1
   54    24    54    1
   55    50    54    1
   56    54    55    1
   57    54    56    1
   58    56    57    1
   59    43    58    1
   60    56    58    1
   61    56    59    1
   62    59    60    1
   63    59    61    1
   64    59    62    1
   65    62    63    1
   66    64    65    1
   67    64    66    1
   68    64    67    1
   69    67    68    1
   70    67    69    1
   71    69    70    1
   72    67    71    1
   73    71    72    1
   74    71    73    1
   75    73    74    1
   76    45    75    1
   77    71    75    1
   78    75    76    1
   79    75    77    1
   80    77    78    1
   81    64    79    1
   82    77    79    1
   83    77    80    1
   84    80    81    1
   85    80    82    1
   86    80    83    1
   87    83    84    1
   88    85    86    1
   89    85    87    1
   90    85    88    1
   91    88    89    1
   92    88    90    1
   93    90    91    1
   94    88    92    1
   95    92    93    1
   96    92    94    1
   97    94    95    1
   98    66    96    1
   99    92    96    1
  100    96    97    1
  101    96    98    1
  102    98    99    1
  103    85   100    1
  104    98   100    1
  105    98   101    1
  106   101   102    1
  107   101   103    1
  108   101   104    1
  109   104   105    1
  110   106   107    1
  111    12   108    1
  112   106   108    1
  113   106   109    1
  114   109   110    1
  115   109   111    1
  116   111   112    1
  117   109   113    1
  118   113   114    1
  119   113   115    1
  120   115   116    1
  121    87   117    1
  122   113   117    1
  123   117   118    1
  124   117   119    1
  125   119   120    1
  126   106   121    1
  127   119   121    1
  128   119   122    1
  129   122   123    1
  130   122   124    1
  131   122   125    1
  132   125   126    1
  133   127   128    1
  134   127   129    2
  135   127   130    1
  136   130   131    1
  137   130   132    2
  138   132   133    1
  139   132   134    1
  140   134   135    1
  141   134   136    1
  142   134   137    1
  143   137   138    1
  144   137   139    1
  145   137   140    1
  146   140   141    1
  147   140   142    1
  148   140   143    1
@<TRIPOS>SUBSTRUCTURE
       1 MOL1            1 RESIDUE      1      MOL     
       2 MOL1          143 RESIDUE      1      MOL     
@<SCITEGIC>MOL_PROPERTY
feprocess Rank
SciTegic.value.IntegerValue
76

@<SCITEGIC>MOL_PROPERTY
Conf_Id
SciTegic.value.IntegerValue
684

@<SCITEGIC>MOL_PROPERTY
Probability
SciTegic.value.DoubleValue
0.00

@<SCITEGIC>MOL_PROPERTY
G
SciTegic.value.DoubleValue
500.536

@<SCITEGIC>MOL_PROPERTY
E
SciTegic.value.DoubleValue
315.627

@<SCITEGIC>MOL_PROPERTY
-TS
SciTegic.value.DoubleValue
184.909

@<SCITEGIC>MOL_PROPERTY
U+W
SciTegic.value.DoubleValue
189.539

@<SCITEGIC>MOL_PROPERTY
U
SciTegic.value.DoubleValue
261.841

@<SCITEGIC>MOL_PROPERTY
W
SciTegic.value.DoubleValue
-72.302

@<SCITEGIC>MOL_PROPERTY
W(PB)
SciTegic.value.DoubleValue
-78.256

@<SCITEGIC>MOL_PROPERTY
W(SA)
SciTegic.value.DoubleValue
5.954

@<SCITEGIC>MOL_PROPERTY
Valence
SciTegic.value.DoubleValue
150.715

@<SCITEGIC>MOL_PROPERTY
Coulomb
SciTegic.value.DoubleValue
134.800

@<SCITEGIC>MOL_PROPERTY
VdW
SciTegic.value.DoubleValue
-23.674

@<SCITEGIC>MOL_PROPERTY
VdW6
SciTegic.value.DoubleValue
-184.587

@<SCITEGIC>MOL_PROPERTY
VdW12
SciTegic.value.DoubleValue
160.913

@<SCITEGIC>MOL_PROPERTY
Bond
SciTegic.value.DoubleValue
5.167

@<SCITEGIC>MOL_PROPERTY
Angle
SciTegic.value.DoubleValue
16.052

@<SCITEGIC>MOL_PROPERTY
Pdih
SciTegic.value.DoubleValue
129.449

@<SCITEGIC>MOL_PROPERTY
Idih
SciTegic.value.DoubleValue
0.047

@<SCITEGIC>MOL_PROPERTY
Tether
SciTegic.value.DoubleValue
0.000

@<TRIPOS>MOLECULE
CD_guest-s19_fast_vm2_rndm.mol2 : feprocess host+ligand conformer 77
         143         148           2
SMALL
USER_CHARGES
 
@<TRIPOS>ATOM
       1    C1      16.218645   15.348233   20.323736 C.3        1 MOL1         0.2972
       2    H1      15.204909   15.290444   19.907019 H          1 MOL1         0.0751
       3    O1      16.475106   16.638810   20.912295 O.3        1 MOL1        -0.3740
       4    C2      16.461995   14.234258   21.378488 C.3        1 MOL1         0.1003
       5    H2      16.361458   13.272959   20.858046 H          1 MOL1         0.0783
       6    O2      15.500390   14.281120   22.442723 O.3        1 MOL1        -0.5519
       7    H3      15.593479   15.163889   22.882254 H          1 MOL1         0.3769
       8    C3      17.905583   14.319968   21.934145 C.3        1 MOL1         0.1053
       9    H4      18.006367   15.263896   22.488347 H          1 MOL1         0.0783
      10    O3      18.153526   13.213857   22.809182 O.3        1 MOL1        -0.5519
      11    H5      17.372248   13.174691   23.403850 H          1 MOL1         0.3769
      12    C4      18.944087   14.317087   20.783693 C.3        1 MOL1         0.1018
      13    H6      18.980593   13.306448   20.356675 H          1 MOL1         0.0783
      14    C5      18.581956   15.345562   19.671915 C.3        1 MOL1         0.1043
      15    H7      18.703814   16.354458   20.086325 H          1 MOL1         0.0783
      16    O4      17.197933   15.155534   19.278862 O.3        1 MOL1        -0.3740
      17    C6      19.458193   15.276603   18.394876 C.3        1 MOL1         0.0138
      18    H8      20.332820   15.922081   18.535926 H          1 MOL1         0.0794
      19    H9      18.886798   15.698935   17.557561 H          1 MOL1         0.0794
      20    O5      19.891209   13.950389   18.073780 O.3        1 MOL1        -0.5486
      21    H10     20.706582   13.787396   18.600514 H          1 MOL1         0.3769
      22    C7      14.950850   20.203690   22.215368 C.3        1 MOL1         0.2972
      23    H11     14.358182   21.052729   22.579335 H          1 MOL1         0.0751
      24    O6      16.281321   20.622240   21.841982 O.3        1 MOL1        -0.3740
      25    C8      15.026791   19.117417   23.318944 C.3        1 MOL1         0.1003
      26    H12     13.999646   18.787851   23.521417 H          1 MOL1         0.0783
      27    O7      15.584973   19.670880   24.523795 O.3        1 MOL1        -0.5519
      28    H13     16.175945   18.996128   24.945778 H          1 MOL1         0.3769
      29    C9      15.825234   17.885901   22.832168 C.3        1 MOL1         0.1053
      30    H14     16.871262   18.189206   22.730048 H          1 MOL1         0.0783
      31    O8      15.706574   16.818805   23.781877 O.3        1 MOL1        -0.5519
      32    H15     16.218711   17.092217   24.585190 H          1 MOL1         0.3769
      33    C10     15.357963   17.379584   21.444458 C.3        1 MOL1         0.1018
      34    H16     14.465146   16.753453   21.573018 H          1 MOL1         0.0783
      35    C11     15.075658   18.526003   20.433224 C.3        1 MOL1         0.1043
      36    H17     16.048536   18.904219   20.101300 H          1 MOL1         0.0783
      37    O9      14.335685   19.612328   21.049817 O.3        1 MOL1        -0.3740
      38    C12     14.314235   18.061828   19.168563 C.3        1 MOL1         0.0138
      39    H18     14.987757   17.436929   18.566596 H          1 MOL1         0.0794
      40    H19     14.062986   18.943966   18.564495 H          1 MOL1         0.0794
      41    O10     13.128398   17.325905   19.492336 O.3        1 MOL1        -0.5486
      42    H20     12.657971   17.132985   18.652049 H          1 MOL1         0.3769
      43    C13     18.444791   24.075763   21.011963 C.3        1 MOL1         0.2972
      44    H21     18.776206   25.071511   20.691259 H          1 MOL1         0.0751
      45    O11     19.548182   23.280674   21.490233 O.3        1 MOL1        -0.3740
      46    C14     17.438857   24.214538   22.177856 C.3        1 MOL1         0.1003
      47    H22     16.600189   24.824151   21.817008 H          1 MOL1         0.0783
      48    O12     18.064833   24.875990   23.289286 O.3        1 MOL1        -0.5519
      49    H23     18.997067   24.550331   23.319569 H          1 MOL1         0.3769
      50    C15     16.875377   22.839292   22.615321 C.3        1 MOL1         0.1053
      51    H24     17.674896   22.283047   23.124306 H          1 MOL1         0.0783
      52    O13     15.786089   23.068890   23.514658 O.3        1 MOL1        -0.5519
      53    H25     16.144710   23.659518   24.212202 H          1 MOL1         0.3769
      54    C16     16.397830   21.992906   21.404529 C.3        1 MOL1         0.1018
      55    H26     15.435140   22.391954   21.059454 H          1 MOL1         0.0783
      56    C17     17.407130   22.014811   20.222104 C.3        1 MOL1         0.1043
      57    H27     18.298627   21.455366   20.524334 H          1 MOL1         0.0783
      58    O14     17.788641   23.381286   19.930216 O.3        1 MOL1        -0.3740
      59    C18     16.887133   21.355300   18.917845 C.3        1 MOL1         0.0138
      60    H28     17.164765   20.294117   18.932695 H          1 MOL1         0.0794
      61    H29     17.411656   21.803080   18.063472 H          1 MOL1         0.0794
      62    O15     15.470263   21.484846   18.742103 O.3        1 MOL1        -0.5486
      63    H30     15.034859   20.990914   19.474444 H          1 MOL1         0.3769
      64    C19     23.628279   22.656271   20.858894 C.3        1 MOL1         0.2972
      65    H31     24.681722   22.741491   20.562546 H          1 MOL1         0.0751
      66    O16     23.321803   21.339749   21.357928 O.3        1 MOL1        -0.3740
      67    C20     23.265039   23.700836   21.947382 C.3        1 MOL1         0.1003
      68    H32     23.443870   24.694093   21.515499 H          1 MOL1         0.0783
      69    O17     24.081943   23.548613   23.118637 O.3        1 MOL1        -0.5519
      70    H33     23.983876   22.611888   23.426919 H          1 MOL1         0.3769
      71    C21     21.763223   23.607170   22.316406 C.3        1 MOL1         0.1053
      72    H34     21.591049   22.640032   22.809471 H          1 MOL1         0.0783
      73    O18     21.422698   24.674743   23.208458 O.3        1 MOL1        -0.5519
      74    H35     22.138324   24.684870   23.882156 H          1 MOL1         0.3769
      75    C22     20.865525   23.673514   21.054635 C.3        1 MOL1         0.1018
      76    H36     20.883018   24.704454   20.677690 H          1 MOL1         0.0783
      77    C23     21.355793   22.698196   19.945296 C.3        1 MOL1         0.1043
      78    H37     21.190517   21.675100   20.301172 H          1 MOL1         0.0783
      79    O19     22.773158   22.902727   19.722631 O.3        1 MOL1        -0.3740
      80    C24     20.639196   22.822145   18.577123 C.3        1 MOL1         0.0138
      81    H38     19.740575   22.194634   18.594979 H          1 MOL1         0.0794
      82    H39     21.296968   22.406721   17.802060 H          1 MOL1         0.0794
      83    O20     20.280649   24.167776   18.245371 O.3        1 MOL1        -0.5486
      84    H40     19.367476   24.304648   18.582942 H          1 MOL1         0.3769
      85    C25     24.916463   17.665700   22.289844 C.3        1 MOL1         0.2972
      86    H41     25.533386   16.798113   22.557750 H          1 MOL1         0.0751
      87    O21     23.576850   17.276315   21.932770 O.3        1 MOL1        -0.3740
      88    C26     24.838493   18.645445   23.484654 C.3        1 MOL1         0.1003
      89    H42     25.858793   18.992653   23.693385 H          1 MOL1         0.0783
      90    O22     24.315217   17.987018   24.649365 O.3        1 MOL1        -0.5519
      91    H43     23.880871   17.154635   24.338598 H          1 MOL1         0.3769
      92    C27     23.977707   19.878598   23.127599 C.3        1 MOL1         0.1053
      93    H44     22.939542   19.546404   23.008295 H          1 MOL1         0.0783
      94    O23     24.054967   20.830680   24.193223 O.3        1 MOL1        -0.5519
      95    H45     23.910739   20.302061   25.010084 H          1 MOL1         0.3769
      96    C28     24.429956   20.530654   21.797010 C.3        1 MOL1         0.1018
      97    H46     25.329525   21.130541   21.989029 H          1 MOL1         0.0783
      98    C29     24.705110   19.491271   20.670369 C.3        1 MOL1         0.1043
      99    H47     23.735303   19.118219   20.321114 H          1 MOL1         0.0783
     100    O24     25.484872   18.372272   21.167917 O.3        1 MOL1        -0.3740
     101    C30     25.430727   20.086306   19.440236 C.3        1 MOL1         0.0138
     102    H48     24.731401   20.745368   18.908063 H          1 MOL1         0.0794
     103    H49     25.690634   19.267239   18.756148 H          1 MOL1         0.0794
     104    O25     26.605107   20.819836   19.809136 O.3        1 MOL1        -0.5486
     105    H50     27.055893   21.096647   18.981647 H          1 MOL1         0.3769
     106    C31     21.332932   13.847500   21.131229 C.3        1 MOL1         0.2972
     107    H51     21.023045   12.830648   20.858528 H          1 MOL1         0.0751
     108    O26     20.196970   14.694550   21.384782 O.3        1 MOL1        -0.3740
     109    C32     22.165868   13.810653   22.437638 C.3        1 MOL1         0.1003
     110    H52     23.038981   13.169817   22.258645 H          1 MOL1         0.0783
     111    O27     21.381976   13.261302   23.508675 O.3        1 MOL1        -0.5519
     112    H53     20.446860   13.534106   23.342486 H          1 MOL1         0.3769
     113    C33     22.674719   15.224055   22.812995 C.3        1 MOL1         0.1053
     114    H54     21.807949   15.843010   23.078389 H          1 MOL1         0.0783
     115    O28     23.563190   15.133337   23.931057 O.3        1 MOL1        -0.5519
     116    H55     23.115459   14.527147   24.562985 H          1 MOL1         0.3769
     117    C34     23.391141   15.886658   21.612296 C.3        1 MOL1         0.1018
     118    H56     24.345509   15.372176   21.438588 H          1 MOL1         0.0783
     119    C35     22.535815   15.817322   20.319478 C.3        1 MOL1         0.1043
     120    H57     21.641440   16.431513   20.471154 H          1 MOL1         0.0783
     121    O29     22.134226   14.443045   20.084124 O.3        1 MOL1        -0.3740
     122    C36     23.244618   16.366854   19.053444 C.3        1 MOL1         0.0138
     123    H58     23.024347   17.438980   18.973099 H          1 MOL1         0.0794
     124    H59     22.807693   15.885838   18.168288 H          1 MOL1         0.0794
     125    O30     24.664343   16.172590   19.068055 O.3        1 MOL1        -0.5486
     126    H60     25.035866   16.789650   19.740346 H          1 MOL1         0.3769
     127    C1      18.309900   17.043173   25.635074 C.2        1 MOL1         0.6173
     128    O1      17.430511   17.880504   25.743192 O.co2      1 MOL1        -0.6755
     129    O2      18.398248   16.078239   26.367463 O.co2      1 MOL1        -0.6755
     130    C2      19.224245   17.105064   24.464066 C.2        1 MOL1        -0.1504
     131    H1      19.857955   16.235255   24.311580 H          1 MOL1         0.0814
     132    C3      19.265544   18.145094   23.601371 C.2        1 MOL1        -0.1394
     133    H2      18.644102   19.026189   23.761814 H          1 MOL1         0.0817
     134    C4      20.110499   18.151775   22.349244 C.3        1 MOL1        -0.1849
     135    H3      20.074633   17.157954   21.896602 H          1 MOL1         0.0736
     136    H4      21.157041   18.349103   22.603105 H          1 MOL1         0.0736
     137    C5      19.609274   19.185470   21.322902 C.3        1 MOL1        -0.1866
     138    H5      18.537438   19.028669   21.140677 H          1 MOL1         0.0738
     139    H6      19.722869   20.193318   21.744807 H          1 MOL1         0.0738
     140    C6      20.370845   19.088007   19.986115 C.3        1 MOL1        -0.2879
     141    H7      20.246812   18.097927   19.534504 H          1 MOL1         0.0750
     142    H8      19.994888   19.829086   19.270926 H          1 MOL1         0.0750
     143    H9      21.442234   19.267508   20.135991 H          1 MOL1         0.0750
@<TRIPOS>BOND
    1     1     2    1
    2     1     3    1
    3     1     4    1
    4     4     5    1
    5     4     6    1
    6     6     7    1
    7     4     8    1
    8     8     9    1
    9     8    10    1
   10    10    11    1
   11     8    12    1
   12    12    13    1
   13    12    14    1
   14    14    15    1
   15     1    16    1
   16    14    16    1
   17    14    17    1
   18    17    18    1
   19    17    19    1
   20    17    20    1
   21    20    21    1
   22    22    23    1
   23    22    24    1
   24    22    25    1
   25    25    26    1
   26    25    27    1
   27    27    28    1
   28    25    29    1
   29    29    30    1
   30    29    31    1
   31    31    32    1
   32     3    33    1
   33    29    33    1
   34    33    34    1
   35    33    35    1
   36    35    36    1
   37    22    37    1
   38    35    37    1
   39    35    38    1
   40    38    39    1
   41    38    40    1
   42    38    41    1
   43    41    42    1
   44    43    44    1
   45    43    45    1
   46    43    46    1
   47    46    47    1
   48    46    48    1
   49    48    49    1
   50    46    50    1
   51    50    51    1
   52    50    52    1
   53    52    53    1
   54    24    54    1
   55    50    54    1
   56    54    55    1
   57    54    56    1
   58    56    57    1
   59    43    58    1
   60    56    58    1
   61    56    59    1
   62    59    60    1
   63    59    61    1
   64    59    62    1
   65    62    63    1
   66    64    65    1
   67    64    66    1
   68    64    67    1
   69    67    68    1
   70    67    69    1
   71    69    70    1
   72    67    71    1
   73    71    72    1
   74    71    73    1
   75    73    74    1
   76    45    75    1
   77    71    75    1
   78    75    76    1
   79    75    77    1
   80    77    78    1
   81    64    79    1
   82    77    79    1
   83    77    80    1
   84    80    81    1
   85    80    82    1
   86    80    83    1
   87    83    84    1
   88    85    86    1
   89    85    87    1
   90    85    88    1
   91    88    89    1
   92    88    90    1
   93    90    91    1
   94    88    92    1
   95    92    93    1
   96    92    94    1
   97    94    95    1
   98    66    96    1
   99    92    96    1
  100    96    97    1
  101    96    98    1
  102    98    99    1
  103    85   100    1
  104    98   100    1
  105    98   101    1
  106   101   102    1
  107   101   103    1
  108   101   104    1
  109   104   105    1
  110   106   107    1
  111    12   108    1
  112   106   108    1
  113   106   109    1
  114   109   110    1
  115   109   111    1
  116   111   112    1
  117   109   113    1
  118   113   114    1
  119   113   115    1
  120   115   116    1
  121    87   117    1
  122   113   117    1
  123   117   118    1
  124   117   119    1
  125   119   120    1
  126   106   121    1
  127   119   121    1
  128   119   122    1
  129   122   123    1
  130   122   124    1
  131   122   125    1
  132   125   126    1
  133   127   128    1
  134   127   129    2
  135   127   130    1
  136   130   131    1
  137   130   132    2
  138   132   133    1
  139   132   134    1
  140   134   135    1
  141   134   136    1
  142   134   137    1
  143   137   138    1
  144   137   139    1
  145   137   140    1
  146   140   141    1
  147   140   142    1
  148   140   143    1
@<TRIPOS>SUBSTRUCTURE
       1 MOL1            1 RESIDUE      1      MOL     
       2 MOL1          143 RESIDUE      1      MOL     
@<SCITEGIC>MOL_PROPERTY
feprocess Rank
SciTegic.value.IntegerValue
77

@<SCITEGIC>MOL_PROPERTY
Conf_Id
SciTegic.value.IntegerValue
366

@<SCITEGIC>MOL_PROPERTY
Probability
SciTegic.value.DoubleValue
0.00

@<SCITEGIC>MOL_PROPERTY
G
SciTegic.value.DoubleValue
500.543

@<SCITEGIC>MOL_PROPERTY
E
SciTegic.value.DoubleValue
318.145

@<SCITEGIC>MOL_PROPERTY
-TS
SciTegic.value.DoubleValue
182.398

@<SCITEGIC>MOL_PROPERTY
U+W
SciTegic.value.DoubleValue
192.057

@<SCITEGIC>MOL_PROPERTY
U
SciTegic.value.DoubleValue
270.050

@<SCITEGIC>MOL_PROPERTY
W
SciTegic.value.DoubleValue
-77.993

@<SCITEGIC>MOL_PROPERTY
W(PB)
SciTegic.value.DoubleValue
-84.027

@<SCITEGIC>MOL_PROPERTY
W(SA)
SciTegic.value.DoubleValue
6.034

@<SCITEGIC>MOL_PROPERTY
Valence
SciTegic.value.DoubleValue
150.616

@<SCITEGIC>MOL_PROPERTY
Coulomb
SciTegic.value.DoubleValue
144.199

@<SCITEGIC>MOL_PROPERTY
VdW
SciTegic.value.DoubleValue
-24.765

@<SCITEGIC>MOL_PROPERTY
VdW6
SciTegic.value.DoubleValue
-180.574

@<SCITEGIC>MOL_PROPERTY
VdW12
SciTegic.value.DoubleValue
155.809

@<SCITEGIC>MOL_PROPERTY
Bond
SciTegic.value.DoubleValue
4.827

@<SCITEGIC>MOL_PROPERTY
Angle
SciTegic.value.DoubleValue
14.333

@<SCITEGIC>MOL_PROPERTY
Pdih
SciTegic.value.DoubleValue
131.413

@<SCITEGIC>MOL_PROPERTY
Idih
SciTegic.value.DoubleValue
0.044

@<SCITEGIC>MOL_PROPERTY
Tether
SciTegic.value.DoubleValue
0.000

@<TRIPOS>MOLECULE
CD_guest-s19_fast_vm2_rndm.mol2 : feprocess host+ligand conformer 78
         143         148           2
SMALL
USER_CHARGES
 
@<TRIPOS>ATOM
       1    C1      16.362999   15.365492   21.749365 C.3        1 MOL1         0.2972
       2    H1      15.277490   15.320155   21.904794 H          1 MOL1         0.0751
       3    O1      16.783076   16.669731   21.308062 O.3        1 MOL1        -0.3740
       4    C2      17.103736   15.036254   23.066724 C.3        1 MOL1         0.1003
       5    H2      16.817586   14.016481   23.355201 H          1 MOL1         0.0783
       6    O2      16.727016   15.946055   24.113696 O.3        1 MOL1        -0.5519
       7    H3      16.008485   16.519541   23.751674 H          1 MOL1         0.3769
       8    C3      18.634999   15.066059   22.854682 C.3        1 MOL1         0.1053
       9    H4      18.931257   16.097914   22.633971 H          1 MOL1         0.0783
      10    O3      19.269884   14.633601   24.059727 O.3        1 MOL1        -0.5519
      11    H5      18.803520   15.129358   24.770716 H          1 MOL1         0.3769
      12    C4      19.068471   14.183956   21.655345 C.3        1 MOL1         0.1018
      13    H6      19.039742   13.130648   21.962100 H          1 MOL1         0.0783
      14    C5      18.174918   14.408862   20.400885 C.3        1 MOL1         0.1043
      15    H7      18.430063   15.390978   19.982566 H          1 MOL1         0.0783
      16    O4      16.769003   14.401825   20.755555 O.3        1 MOL1        -0.3740
      17    C6      18.401881   13.365629   19.279816 C.3        1 MOL1         0.0138
      18    H8      19.422326   13.481680   18.889724 H          1 MOL1         0.0794
      19    H9      17.713948   13.590983   18.454103 H          1 MOL1         0.0794
      20    O5      18.197198   12.019822   19.730110 O.3        1 MOL1        -0.5486
      21    H10     18.933416   11.780387   20.329324 H          1 MOL1         0.3769
      22    C7      14.968189   20.352504   20.455149 C.3        1 MOL1         0.2972
      23    H11     14.299882   21.127695   20.058914 H          1 MOL1         0.0751
      24    O6      16.131107   20.917887   21.087799 O.3        1 MOL1        -0.3740
      25    C8      14.241482   19.481093   21.513922 C.3        1 MOL1         0.1003
      26    H12     13.390344   19.001652   21.013173 H          1 MOL1         0.0783
      27    O7      13.750101   20.279451   22.601582 O.3        1 MOL1        -0.5519
      28    H13     14.466639   20.916498   22.852016 H          1 MOL1         0.3769
      29    C9      15.176535   18.360654   22.036630 C.3        1 MOL1         0.1053
      30    H14     16.017679   18.828130   22.567147 H          1 MOL1         0.0783
      31    O8      14.444567   17.518269   22.933376 O.3        1 MOL1        -0.5519
      32    H15     13.917240   18.139234   23.485764 H          1 MOL1         0.3769
      33    C10     15.740219   17.544098   20.843578 C.3        1 MOL1         0.1018
      34    H16     14.922009   16.977245   20.380412 H          1 MOL1         0.0783
      35    C11     16.377889   18.470937   19.775673 C.3        1 MOL1         0.1043
      36    H17     17.254904   18.958016   20.219906 H          1 MOL1         0.0783
      37    O9      15.413814   19.481140   19.390116 O.3        1 MOL1        -0.3740
      38    C12     16.867294   17.724684   18.507750 C.3        1 MOL1         0.0138
      39    H18     17.868199   17.321573   18.709021 H          1 MOL1         0.0794
      40    H19     16.972918   18.450861   17.690949 H          1 MOL1         0.0794
      41    O10     15.995474   16.657498   18.113599 O.3        1 MOL1        -0.5486
      42    H20     16.054922   15.963589   18.807345 H          1 MOL1         0.3769
      43    C13     18.320768   24.316725   21.768103 C.3        1 MOL1         0.2972
      44    H21     18.725777   25.329537   21.887087 H          1 MOL1         0.0751
      45    O11     19.333095   23.312570   22.003052 O.3        1 MOL1        -0.3740
      46    C14     17.144656   24.113878   22.754578 C.3        1 MOL1         0.1003
      47    H22     16.349801   24.807617   22.451743 H          1 MOL1         0.0783
      48    O12     17.533589   24.428068   24.100841 O.3        1 MOL1        -0.5519
      49    H23     17.758457   23.576993   24.561893 H          1 MOL1         0.3769
      50    C15     16.590309   22.676881   22.628374 C.3        1 MOL1         0.1053
      51    H24     17.383680   21.981367   22.921309 H          1 MOL1         0.0783
      52    O13     15.457254   22.502034   23.486279 O.3        1 MOL1        -0.5519
      53    H25     15.823209   22.536140   24.405254 H          1 MOL1         0.3769
      54    C16     16.206848   22.353752   21.164701 C.3        1 MOL1         0.1018
      55    H26     15.247099   22.836658   20.938954 H          1 MOL1         0.0783
      56    C17     17.292072   22.797583   20.141599 C.3        1 MOL1         0.1043
      57    H27     18.122524   22.084340   20.217672 H          1 MOL1         0.0783
      58    O14     17.791247   24.129968   20.437984 O.3        1 MOL1        -0.3740
      59    C18     16.796551   22.773883   18.675917 C.3        1 MOL1         0.0138
      60    H28     16.650742   21.727962   18.373943 H          1 MOL1         0.0794
      61    H29     17.580869   23.193639   18.032043 H          1 MOL1         0.0794
      62    O15     15.574029   23.502618   18.509130 O.3        1 MOL1        -0.5486
      63    H30     15.347562   23.490231   17.553728 H          1 MOL1         0.3769
      64    C19     23.471420   22.723091   21.686866 C.3        1 MOL1         0.2972
      65    H31     24.546998   22.892822   21.549611 H          1 MOL1         0.0751
      66    O16     23.177007   21.324264   21.866041 O.3        1 MOL1        -0.3740
      67    C20     22.991054   23.484009   22.943744 C.3        1 MOL1         0.1003
      68    H32     23.240174   24.543282   22.798727 H          1 MOL1         0.0783
      69    O17     23.671551   22.994589   24.111094 O.3        1 MOL1        -0.5519
      70    H33     23.924075   22.057101   23.921749 H          1 MOL1         0.3769
      71    C21     21.457975   23.379856   23.122510 C.3        1 MOL1         0.1053
      72    H34     21.210286   22.344745   23.395542 H          1 MOL1         0.0783
      73    O18     21.068349   24.272002   24.170549 O.3        1 MOL1        -0.5519
      74    H35     21.650563   24.049576   24.929127 H          1 MOL1         0.3769
      75    C22     20.702622   23.731186   21.813622 C.3        1 MOL1         0.1018
      76    H36     20.781932   24.814194   21.652621 H          1 MOL1         0.0783
      77    C23     21.300298   22.980614   20.587426 C.3        1 MOL1         0.1043
      78    H37     21.100330   21.909840   20.716429 H          1 MOL1         0.0783
      79    O19     22.732687   23.200892   20.543976 O.3        1 MOL1        -0.3740
      80    C24     20.725424   23.386935   19.206087 C.3        1 MOL1         0.0138
      81    H38     19.845876   22.768232   18.995219 H          1 MOL1         0.0794
      82    H39     21.468885   23.145644   18.434587 H          1 MOL1         0.0794
      83    O20     20.372687   24.771652   19.124797 O.3        1 MOL1        -0.5486
      84    H40     19.472883   24.855513   19.517828 H          1 MOL1         0.3769
      85    C25     24.925598   17.603457   20.969730 C.3        1 MOL1         0.2972
      86    H41     25.628728   16.846921   20.598073 H          1 MOL1         0.0751
      87    O21     23.712680   17.005531   21.462858 O.3        1 MOL1        -0.3740
      88    C26     25.552807   18.394505   22.147881 C.3        1 MOL1         0.1003
      89    H42     26.493119   18.831939   21.788115 H          1 MOL1         0.0783
      90    O22     25.828235   17.516133   23.252042 O.3        1 MOL1        -0.5519
      91    H43     25.054374   16.904524   23.334555 H          1 MOL1         0.3769
      92    C27     24.628033   19.553383   22.601578 C.3        1 MOL1         0.1053
      93    H44     23.726255   19.118710   23.055116 H          1 MOL1         0.0783
      94    O23     25.312822   20.366199   23.561101 O.3        1 MOL1        -0.5519
      95    H45     25.709818   19.731425   24.198125 H          1 MOL1         0.3769
      96    C28     24.192130   20.416962   21.393783 C.3        1 MOL1         0.1018
      97    H46     25.073627   20.946759   21.009105 H          1 MOL1         0.0783
      98    C29     23.601218   19.535172   20.263701 C.3        1 MOL1         0.1043
      99    H47     22.698515   19.048272   20.647430 H          1 MOL1         0.0783
     100    O24     24.581270   18.529653   19.916140 O.3        1 MOL1        -0.3740
     101    C30     23.199919   20.291130   18.972318 C.3        1 MOL1         0.0138
     102    H48     22.182365   20.680326   19.099093 H          1 MOL1         0.0794
     103    H49     23.162476   19.570055   18.145036 H          1 MOL1         0.0794
     104    O25     24.090103   21.364756   18.647773 O.3        1 MOL1        -0.5486
     105    H50     23.822706   22.132753   19.204097 H          1 MOL1         0.3769
     106    C31     21.417747   13.600952   21.152766 C.3        1 MOL1         0.2972
     107    H51     20.989612   12.601369   21.009567 H          1 MOL1         0.0751
     108    O26     20.394468   14.610069   21.283328 O.3        1 MOL1        -0.3740
     109    C32     22.346147   13.640424   22.393325 C.3        1 MOL1         0.1003
     110    H52     23.194718   12.975947   22.184065 H          1 MOL1         0.0783
     111    O27     21.680127   13.175318   23.575519 O.3        1 MOL1        -0.5519
     112    H53     20.877242   13.741238   23.703160 H          1 MOL1         0.3769
     113    C33     22.903387   15.070283   22.590318 C.3        1 MOL1         0.1053
     114    H54     22.064258   15.739742   22.826351 H          1 MOL1         0.0783
     115    O28     23.847220   15.078721   23.667738 O.3        1 MOL1        -0.5519
     116    H55     23.419339   14.564211   24.387745 H          1 MOL1         0.3769
     117    C34     23.589889   15.580389   21.298516 C.3        1 MOL1         0.1018
     118    H56     24.571033   15.092887   21.226663 H          1 MOL1         0.0783
     119    C35     22.762456   15.303316   20.006080 C.3        1 MOL1         0.1043
     120    H57     21.925140   16.011821   19.975775 H          1 MOL1         0.0783
     121    O29     22.235064   13.951632   20.018234 O.3        1 MOL1        -0.3740
     122    C36     23.564799   15.486419   18.694895 C.3        1 MOL1         0.0138
     123    H58     23.722340   16.558962   18.524832 H          1 MOL1         0.0794
     124    H59     22.956528   15.114743   17.859463 H          1 MOL1         0.0794
     125    O30     24.826538   14.807046   18.730968 O.3        1 MOL1        -0.5486
     126    H60     25.249279   14.918569   17.851576 H          1 MOL1         0.3769
     127    C1      17.098854   20.909569   25.762975 C.2        1 MOL1         0.6173
     128    O1      17.478188   22.053041   25.585890 O.co2      1 MOL1        -0.6755
     129    O2      16.203482   20.624155   26.532943 O.co2      1 MOL1        -0.6755
     130    C2      17.662307   19.816415   24.926657 C.2        1 MOL1        -0.1504
     131    H1      17.203339   18.838497   25.053909 H          1 MOL1         0.0814
     132    C3      18.665422   19.987955   24.036164 C.2        1 MOL1        -0.1394
     133    H2      19.140846   20.960095   23.907554 H          1 MOL1         0.0817
     134    C4      19.173163   18.877037   23.147205 C.3        1 MOL1        -0.1849
     135    H3      18.343119   18.196755   22.924573 H          1 MOL1         0.0736
     136    H4      19.934575   18.289279   23.676747 H          1 MOL1         0.0736
     137    C5      19.752112   19.414285   21.823564 C.3        1 MOL1        -0.1866
     138    H5      19.016188   20.070760   21.340789 H          1 MOL1         0.0738
     139    H6      20.639500   20.025351   22.034738 H          1 MOL1         0.0738
     140    C6      20.126504   18.261933   20.870492 C.3        1 MOL1        -0.2879
     141    H7      19.258743   17.626099   20.663074 H          1 MOL1         0.0750
     142    H8      20.500210   18.648239   19.914524 H          1 MOL1         0.0750
     143    H9      20.903340   17.630296   21.319238 H          1 MOL1         0.0750
@<TRIPOS>BOND
    1     1     2    1
    2     1     3    1
    3     1     4    1
    4     4     5    1
    5     4     6    1
    6     6     7    1
    7     4     8    1
    8     8     9    1
    9     8    10    1
   10    10    11    1
   11     8    12    1
   12    12    13    1
   13    12    14    1
   14    14    15    1
   15     1    16    1
   16    14    16    1
   17    14    17    1
   18    17    18    1
   19    17    19    1
   20    17    20    1
   21    20    21    1
   22    22    23    1
   23    22    24    1
   24    22    25    1
   25    25    26    1
   26    25    27    1
   27    27    28    1
   28    25    29    1
   29    29    30    1
   30    29    31    1
   31    31    32    1
   32     3    33    1
   33    29    33    1
   34    33    34    1
   35    33    35    1
   36    35    36    1
   37    22    37    1
   38    35    37    1
   39    35    38    1
   40    38    39    1
   41    38    40    1
   42    38    41    1
   43    41    42    1
   44    43    44    1
   45    43    45    1
   46    43    46    1
   47    46    47    1
   48    46    48    1
   49    48    49    1
   50    46    50    1
   51    50    51    1
   52    50    52    1
   53    52    53    1
   54    24    54    1
   55    50    54    1
   56    54    55    1
   57    54    56    1
   58    56    57    1
   59    43    58    1
   60    56    58    1
   61    56    59    1
   62    59    60    1
   63    59    61    1
   64    59    62    1
   65    62    63    1
   66    64    65    1
   67    64    66    1
   68    64    67    1
   69    67    68    1
   70    67    69    1
   71    69    70    1
   72    67    71    1
   73    71    72    1
   74    71    73    1
   75    73    74    1
   76    45    75    1
   77    71    75    1
   78    75    76    1
   79    75    77    1
   80    77    78    1
   81    64    79    1
   82    77    79    1
   83    77    80    1
   84    80    81    1
   85    80    82    1
   86    80    83    1
   87    83    84    1
   88    85    86    1
   89    85    87    1
   90    85    88    1
   91    88    89    1
   92    88    90    1
   93    90    91    1
   94    88    92    1
   95    92    93    1
   96    92    94    1
   97    94    95    1
   98    66    96    1
   99    92    96    1
  100    96    97    1
  101    96    98    1
  102    98    99    1
  103    85   100    1
  104    98   100    1
  105    98   101    1
  106   101   102    1
  107   101   103    1
  108   101   104    1
  109   104   105    1
  110   106   107    1
  111    12   108    1
  112   106   108    1
  113   106   109    1
  114   109   110    1
  115   109   111    1
  116   111   112    1
  117   109   113    1
  118   113   114    1
  119   113   115    1
  120   115   116    1
  121    87   117    1
  122   113   117    1
  123   117   118    1
  124   117   119    1
  125   119   120    1
  126   106   121    1
  127   119   121    1
  128   119   122    1
  129   122   123    1
  130   122   124    1
  131   122   125    1
  132   125   126    1
  133   127   128    1
  134   127   129    2
  135   127   130    1
  136   130   131    1
  137   130   132    2
  138   132   133    1
  139   132   134    1
  140   134   135    1
  141   134   136    1
  142   134   137    1
  143   137   138    1
  144   137   139    1
  145   137   140    1
  146   140   141    1
  147   140   142    1
  148   140   143    1
@<TRIPOS>SUBSTRUCTURE
       1 MOL1            1 RESIDUE      1      MOL     
       2 MOL1          143 RESIDUE      1      MOL     
@<SCITEGIC>MOL_PROPERTY
feprocess Rank
SciTegic.value.IntegerValue
78

@<SCITEGIC>MOL_PROPERTY
Conf_Id
SciTegic.value.IntegerValue
50

@<SCITEGIC>MOL_PROPERTY
Probability
SciTegic.value.DoubleValue
0.00

@<SCITEGIC>MOL_PROPERTY
G
SciTegic.value.DoubleValue
500.547

@<SCITEGIC>MOL_PROPERTY
E
SciTegic.value.DoubleValue
319.524

@<SCITEGIC>MOL_PROPERTY
-TS
SciTegic.value.DoubleValue
181.023

@<SCITEGIC>MOL_PROPERTY
U+W
SciTegic.value.DoubleValue
193.436

@<SCITEGIC>MOL_PROPERTY
U
SciTegic.value.DoubleValue
276.012

@<SCITEGIC>MOL_PROPERTY
W
SciTegic.value.DoubleValue
-82.576

@<SCITEGIC>MOL_PROPERTY
W(PB)
SciTegic.value.DoubleValue
-88.676

@<SCITEGIC>MOL_PROPERTY
W(SA)
SciTegic.value.DoubleValue
6.099

@<SCITEGIC>MOL_PROPERTY
Valence
SciTegic.value.DoubleValue
151.008

@<SCITEGIC>MOL_PROPERTY
Coulomb
SciTegic.value.DoubleValue
149.187

@<SCITEGIC>MOL_PROPERTY
VdW
SciTegic.value.DoubleValue
-24.183

@<SCITEGIC>MOL_PROPERTY
VdW6
SciTegic.value.DoubleValue
-176.134

@<SCITEGIC>MOL_PROPERTY
VdW12
SciTegic.value.DoubleValue
151.951

@<SCITEGIC>MOL_PROPERTY
Bond
SciTegic.value.DoubleValue
4.674

@<SCITEGIC>MOL_PROPERTY
Angle
SciTegic.value.DoubleValue
13.951

@<SCITEGIC>MOL_PROPERTY
Pdih
SciTegic.value.DoubleValue
132.361

@<SCITEGIC>MOL_PROPERTY
Idih
SciTegic.value.DoubleValue
0.022

@<SCITEGIC>MOL_PROPERTY
Tether
SciTegic.value.DoubleValue
0.000

@<TRIPOS>MOLECULE
CD_guest-s19_fast_vm2_rndm.mol2 : feprocess host+ligand conformer 79
         143         148           2
SMALL
USER_CHARGES
 
@<TRIPOS>ATOM
       1    C1      16.279968   15.435299   20.288528 C.3        1 MOL1         0.2972
       2    H1      15.276741   15.400487   19.844767 H          1 MOL1         0.0751
       3    O1      16.524500   16.684302   20.960463 O.3        1 MOL1        -0.3740
       4    C2      16.488152   14.284082   21.307451 C.3        1 MOL1         0.1003
       5    H2      16.375900   13.339109   20.760258 H          1 MOL1         0.0783
       6    O2      15.517276   14.333410   22.364784 O.3        1 MOL1        -0.5519
       7    H3      15.603686   15.219802   22.799462 H          1 MOL1         0.3769
       8    C3      17.921308   14.333501   21.891500 C.3        1 MOL1         0.1053
       9    H4      18.010142   15.243315   22.502030 H          1 MOL1         0.0783
      10    O3      18.148880   13.179820   22.708725 O.3        1 MOL1        -0.5519
      11    H5      17.345029   13.097686   23.268308 H          1 MOL1         0.3769
      12    C4      18.987676   14.401741   20.769579 C.3        1 MOL1         0.1018
      13    H6      19.044991   13.417620   20.286322 H          1 MOL1         0.0783
      14    C5      18.653638   15.484814   19.703974 C.3        1 MOL1         0.1043
      15    H7      18.750213   16.467924   20.177044 H          1 MOL1         0.0783
      16    O4      17.286159   15.295017   19.262124 O.3        1 MOL1        -0.3740
      17    C6      19.572710   15.508299   18.456007 C.3        1 MOL1         0.0138
      18    H8      20.418179   16.177884   18.658085 H          1 MOL1         0.0794
      19    H9      19.015259   15.956349   17.622523 H          1 MOL1         0.0794
      20    O5      20.058570   14.212823   18.085812 O.3        1 MOL1        -0.5486
      21    H10     20.838151   14.031840   18.660201 H          1 MOL1         0.3769
      22    C7      14.826513   20.250733   22.088378 C.3        1 MOL1         0.2972
      23    H11     14.174148   21.081998   22.386295 H          1 MOL1         0.0751
      24    O6      16.183235   20.691864   21.895185 O.3        1 MOL1        -0.3740
      25    C8      14.823443   19.161873   23.188185 C.3        1 MOL1         0.1003
      26    H12     13.795408   18.789319   23.285324 H          1 MOL1         0.0783
      27    O7      15.249654   19.714196   24.442282 O.3        1 MOL1        -0.5519
      28    H13     15.958534   20.363897   24.232826 H          1 MOL1         0.3769
      29    C9      15.728563   17.975625   22.788527 C.3        1 MOL1         0.1053
      30    H14     16.768989   18.327995   22.777741 H          1 MOL1         0.0783
      31    O8      15.586422   16.925280   23.750686 O.3        1 MOL1        -0.5519
      32    H15     15.665662   17.371007   24.623377 H          1 MOL1         0.3769
      33    C10     15.381369   17.448626   21.375001 C.3        1 MOL1         0.1018
      34    H16     14.470255   16.838328   21.433828 H          1 MOL1         0.0783
      35    C11     15.208973   18.587493   20.331548 C.3        1 MOL1         0.1043
      36    H17     16.209619   18.983863   20.124509 H          1 MOL1         0.0783
      37    O9      14.372956   19.652683   20.855658 O.3        1 MOL1        -0.3740
      38    C12     14.618308   18.116158   18.981371 C.3        1 MOL1         0.0138
      39    H18     15.377549   17.518533   18.458658 H          1 MOL1         0.0794
      40    H19     14.415381   18.997877   18.358791 H          1 MOL1         0.0794
      41    O10     13.424389   17.343563   19.156439 O.3        1 MOL1        -0.5486
      42    H20     13.059551   17.152116   18.264962 H          1 MOL1         0.3769
      43    C13     18.437211   24.081281   21.123464 C.3        1 MOL1         0.2972
      44    H21     18.806050   25.075589   20.840946 H          1 MOL1         0.0751
      45    O11     19.510066   23.206695   21.519958 O.3        1 MOL1        -0.3740
      46    C14     17.474055   24.203703   22.326796 C.3        1 MOL1         0.1003
      47    H22     16.631451   24.836722   22.019548 H          1 MOL1         0.0783
      48    O12     18.149559   24.810282   23.440256 O.3        1 MOL1        -0.5519
      49    H23     19.094296   24.524197   23.387501 H          1 MOL1         0.3769
      50    C15     16.918069   22.816424   22.722168 C.3        1 MOL1         0.1053
      51    H24     17.749250   22.225987   23.127798 H          1 MOL1         0.0783
      52    O13     15.908455   22.976718   23.722958 O.3        1 MOL1        -0.5519
      53    H25     16.298605   23.588038   24.385958 H          1 MOL1         0.3769
      54    C16     16.339376   22.065668   21.495280 C.3        1 MOL1         0.1018
      55    H26     15.381086   22.528359   21.225182 H          1 MOL1         0.0783
      56    C17     17.290753   22.101699   20.263384 C.3        1 MOL1         0.1043
      57    H27     18.163301   21.474155   20.488494 H          1 MOL1         0.0783
      58    O14     17.724748   23.466023   20.030588 O.3        1 MOL1        -0.3740
      59    C18     16.675774   21.565994   18.942840 C.3        1 MOL1         0.0138
      60    H28     16.907927   20.498650   18.853122 H          1 MOL1         0.0794
      61    H29     17.177006   22.058721   18.099102 H          1 MOL1         0.0794
      62    O15     15.259042   21.765387   18.853186 O.3        1 MOL1        -0.5486
      63    H30     14.836043   21.151680   19.498074 H          1 MOL1         0.3769
      64    C19     23.585452   22.583382   20.886013 C.3        1 MOL1         0.2972
      65    H31     24.630772   22.668548   20.562381 H          1 MOL1         0.0751
      66    O16     23.326619   21.331204   21.543375 O.3        1 MOL1        -0.3740
      67    C20     23.223447   23.706138   21.890828 C.3        1 MOL1         0.1003
      68    H32     23.391908   24.667536   21.388582 H          1 MOL1         0.0783
      69    O17     24.051822   23.628344   23.063002 O.3        1 MOL1        -0.5519
      70    H33     24.048946   22.683166   23.360485 H          1 MOL1         0.3769
      71    C21     21.727931   23.622928   22.285402 C.3        1 MOL1         0.1053
      72    H34     21.577805   22.704628   22.870414 H          1 MOL1         0.0783
      73    O18     21.375510   24.763757   23.076513 O.3        1 MOL1        -0.5519
      74    H35     22.093287   24.845503   23.742983 H          1 MOL1         0.3769
      75    C22     20.819297   23.548457   21.033639 C.3        1 MOL1         0.1018
      76    H36     20.834004   24.529006   20.540055 H          1 MOL1         0.0783
      77    C23     21.296419   22.457997   20.031743 C.3        1 MOL1         0.1043
      78    H37     21.168725   21.471544   20.497679 H          1 MOL1         0.0783
      79    O19     22.698679   22.686082   19.751882 O.3        1 MOL1        -0.3740
      80    C24     20.540577   22.418844   18.678810 C.3        1 MOL1         0.0138
      81    H38     19.665277   21.767540   18.784561 H          1 MOL1         0.0794
      82    H39     21.190646   21.943865   17.931785 H          1 MOL1         0.0794
      83    O20     20.125225   23.712485   18.224602 O.3        1 MOL1        -0.5486
      84    H40     19.267043   23.901554   18.668502 H          1 MOL1         0.3769
      85    C25     25.031028   17.627308   22.198743 C.3        1 MOL1         0.2972
      86    H41     25.704196   16.775773   22.361067 H          1 MOL1         0.0751
      87    O21     23.656734   17.210202   22.123519 O.3        1 MOL1        -0.3740
      88    C26     25.152144   18.621485   23.378030 C.3        1 MOL1         0.1003
      89    H42     26.191244   18.973775   23.412767 H          1 MOL1         0.0783
      90    O22     24.827743   17.965061   24.614018 O.3        1 MOL1        -0.5519
      91    H43     24.186583   17.246405   24.391409 H          1 MOL1         0.3769
      92    C27     24.235195   19.846973   23.158594 C.3        1 MOL1         0.1053
      93    H44     23.191055   19.510675   23.223308 H          1 MOL1         0.0783
      94    O23     24.491833   20.826014   24.172195 O.3        1 MOL1        -0.5519
      95    H45     24.480652   20.324637   25.017602 H          1 MOL1         0.3769
      96    C28     24.457402   20.473250   21.761442 C.3        1 MOL1         0.1018
      97    H46     25.402639   21.031976   21.776398 H          1 MOL1         0.0783
      98    C29     24.475488   19.414120   20.623462 C.3        1 MOL1         0.1043
      99    H47     23.451799   19.036387   20.505134 H          1 MOL1         0.0783
     100    O24     25.359438   18.317797   20.975922 O.3        1 MOL1        -0.3740
     101    C30     24.915830   19.969818   19.248438 C.3        1 MOL1         0.0138
     102    H48     24.106015   20.596232   18.850833 H          1 MOL1         0.0794
     103    H49     25.040915   19.127782   18.554670 H          1 MOL1         0.0794
     104    O25     26.128462   20.729467   19.335113 O.3        1 MOL1        -0.5486
     105    H50     26.380720   20.991286   18.423036 H          1 MOL1         0.3769
     106    C31     21.327977   13.871709   21.217366 C.3        1 MOL1         0.2972
     107    H51     20.994129   12.864562   20.936705 H          1 MOL1         0.0751
     108    O26     20.215372   14.758793   21.427395 O.3        1 MOL1        -0.3740
     109    C32     22.120791   13.807557   22.545450 C.3        1 MOL1         0.1003
     110    H52     22.979959   13.142089   22.390439 H          1 MOL1         0.0783
     111    O27     21.290778   13.280600   23.592901 O.3        1 MOL1        -0.5519
     112    H53     20.364522   13.550942   23.379887 H          1 MOL1         0.3769
     113    C33     22.657519   15.205603   22.931094 C.3        1 MOL1         0.1053
     114    H54     21.800312   15.851954   23.166599 H          1 MOL1         0.0783
     115    O28     23.510546   15.094514   24.075957 O.3        1 MOL1        -0.5519
     116    H55     23.016284   14.526101   24.707503 H          1 MOL1         0.3769
     117    C34     23.431607   15.840586   21.752030 C.3        1 MOL1         0.1018
     118    H56     24.370553   15.288730   21.613255 H          1 MOL1         0.0783
     119    C35     22.610313   15.802283   20.431541 C.3        1 MOL1         0.1043
     120    H57     21.734798   16.454106   20.552538 H          1 MOL1         0.0783
     121    O29     22.172842   14.438982   20.192892 O.3        1 MOL1        -0.3740
     122    C36     23.367086   16.291258   19.169382 C.3        1 MOL1         0.0138
     123    H58     23.224048   17.374088   19.073078 H          1 MOL1         0.0794
     124    H59     22.901777   15.836594   18.284919 H          1 MOL1         0.0794
     125    O30     24.767124   15.989925   19.196621 O.3        1 MOL1        -0.5486
     126    H60     25.191685   16.677672   19.760716 H          1 MOL1         0.3769
     127    C1      19.979976   18.997809   19.487420 C.2        1 MOL1         0.6173
     128    O1      21.162881   18.902477   19.216666 O.co2      1 MOL1        -0.6755
     129    O2      19.110970   19.190251   18.659467 O.co2      1 MOL1        -0.6755
     130    C2      19.540414   18.865122   20.900352 C.2        1 MOL1        -0.1504
     131    H1      18.468409   18.922965   21.068255 H          1 MOL1         0.0814
     132    C3      20.382731   18.672256   21.938888 C.2        1 MOL1        -0.1394
     133    H2      21.457517   18.618027   21.781188 H          1 MOL1         0.0817
     134    C4      19.918360   18.516547   23.369066 C.3        1 MOL1        -0.1849
     135    H3      20.770962   18.253602   24.009276 H          1 MOL1         0.0736
     136    H4      19.205504   17.683562   23.435583 H          1 MOL1         0.0736
     137    C5      19.259890   19.810790   23.888709 C.3        1 MOL1        -0.1866
     138    H5      19.984442   20.635926   23.848323 H          1 MOL1         0.0738
     139    H6      18.428930   20.084660   23.228987 H          1 MOL1         0.0738
     140    C6      18.730345   19.650453   25.326647 C.3        1 MOL1        -0.2879
     141    H7      19.546136   19.405879   26.019064 H          1 MOL1         0.0750
     142    H8      18.258932   20.579987   25.670785 H          1 MOL1         0.0750
     143    H9      17.981781   18.849375   25.381531 H          1 MOL1         0.0750
@<TRIPOS>BOND
    1     1     2    1
    2     1     3    1
    3     1     4    1
    4     4     5    1
    5     4     6    1
    6     6     7    1
    7     4     8    1
    8     8     9    1
    9     8    10    1
   10    10    11    1
   11     8    12    1
   12    12    13    1
   13    12    14    1
   14    14    15    1
   15     1    16    1
   16    14    16    1
   17    14    17    1
   18    17    18    1
   19    17    19    1
   20    17    20    1
   21    20    21    1
   22    22    23    1
   23    22    24    1
   24    22    25    1
   25    25    26    1
   26    25    27    1
   27    27    28    1
   28    25    29    1
   29    29    30    1
   30    29    31    1
   31    31    32    1
   32     3    33    1
   33    29    33    1
   34    33    34    1
   35    33    35    1
   36    35    36    1
   37    22    37    1
   38    35    37    1
   39    35    38    1
   40    38    39    1
   41    38    40    1
   42    38    41    1
   43    41    42    1
   44    43    44    1
   45    43    45    1
   46    43    46    1
   47    46    47    1
   48    46    48    1
   49    48    49    1
   50    46    50    1
   51    50    51    1
   52    50    52    1
   53    52    53    1
   54    24    54    1
   55    50    54    1
   56    54    55    1
   57    54    56    1
   58    56    57    1
   59    43    58    1
   60    56    58    1
   61    56    59    1
   62    59    60    1
   63    59    61    1
   64    59    62    1
   65    62    63    1
   66    64    65    1
   67    64    66    1
   68    64    67    1
   69    67    68    1
   70    67    69    1
   71    69    70    1
   72    67    71    1
   73    71    72    1
   74    71    73    1
   75    73    74    1
   76    45    75    1
   77    71    75    1
   78    75    76    1
   79    75    77    1
   80    77    78    1
   81    64    79    1
   82    77    79    1
   83    77    80    1
   84    80    81    1
   85    80    82    1
   86    80    83    1
   87    83    84    1
   88    85    86    1
   89    85    87    1
   90    85    88    1
   91    88    89    1
   92    88    90    1
   93    90    91    1
   94    88    92    1
   95    92    93    1
   96    92    94    1
   97    94    95    1
   98    66    96    1
   99    92    96    1
  100    96    97    1
  101    96    98    1
  102    98    99    1
  103    85   100    1
  104    98   100    1
  105    98   101    1
  106   101   102    1
  107   101   103    1
  108   101   104    1
  109   104   105    1
  110   106   107    1
  111    12   108    1
  112   106   108    1
  113   106   109    1
  114   109   110    1
  115   109   111    1
  116   111   112    1
  117   109   113    1
  118   113   114    1
  119   113   115    1
  120   115   116    1
  121    87   117    1
  122   113   117    1
  123   117   118    1
  124   117   119    1
  125   119   120    1
  126   106   121    1
  127   119   121    1
  128   119   122    1
  129   122   123    1
  130   122   124    1
  131   122   125    1
  132   125   126    1
  133   127   128    1
  134   127   129    2
  135   127   130    1
  136   130   131    1
  137   130   132    2
  138   132   133    1
  139   132   134    1
  140   134   135    1
  141   134   136    1
  142   134   137    1
  143   137   138    1
  144   137   139    1
  145   137   140    1
  146   140   141    1
  147   140   142    1
  148   140   143    1
@<TRIPOS>SUBSTRUCTURE
       1 MOL1            1 RESIDUE      1      MOL     
       2 MOL1          143 RESIDUE      1      MOL     
@<SCITEGIC>MOL_PROPERTY
feprocess Rank
SciTegic.value.IntegerValue
79

@<SCITEGIC>MOL_PROPERTY
Conf_Id
SciTegic.value.IntegerValue
646

@<SCITEGIC>MOL_PROPERTY
Probability
SciTegic.value.DoubleValue
0.00

@<SCITEGIC>MOL_PROPERTY
G
SciTegic.value.DoubleValue
500.561

@<SCITEGIC>MOL_PROPERTY
E
SciTegic.value.DoubleValue
320.699

@<SCITEGIC>MOL_PROPERTY
-TS
SciTegic.value.DoubleValue
179.862

@<SCITEGIC>MOL_PROPERTY
U+W
SciTegic.value.DoubleValue
194.611

@<SCITEGIC>MOL_PROPERTY
U
SciTegic.value.DoubleValue
263.755

@<SCITEGIC>MOL_PROPERTY
W
SciTegic.value.DoubleValue
-69.144

@<SCITEGIC>MOL_PROPERTY
W(PB)
SciTegic.value.DoubleValue
-75.062

@<SCITEGIC>MOL_PROPERTY
W(SA)
SciTegic.value.DoubleValue
5.918

@<SCITEGIC>MOL_PROPERTY
Valence
SciTegic.value.DoubleValue
149.275

@<SCITEGIC>MOL_PROPERTY
Coulomb
SciTegic.value.DoubleValue
144.067

@<SCITEGIC>MOL_PROPERTY
VdW
SciTegic.value.DoubleValue
-29.586

@<SCITEGIC>MOL_PROPERTY
VdW6
SciTegic.value.DoubleValue
-182.273

@<SCITEGIC>MOL_PROPERTY
VdW12
SciTegic.value.DoubleValue
152.687

@<SCITEGIC>MOL_PROPERTY
Bond
SciTegic.value.DoubleValue
4.281

@<SCITEGIC>MOL_PROPERTY
Angle
SciTegic.value.DoubleValue
13.184

@<SCITEGIC>MOL_PROPERTY
Pdih
SciTegic.value.DoubleValue
131.809

@<SCITEGIC>MOL_PROPERTY
Idih
SciTegic.value.DoubleValue
0.000

@<SCITEGIC>MOL_PROPERTY
Tether
SciTegic.value.DoubleValue
0.000

@<TRIPOS>MOLECULE
CD_guest-s19_fast_vm2_rndm.mol2 : feprocess host+ligand conformer 80
         143         148           2
SMALL
USER_CHARGES
 
@<TRIPOS>ATOM
       1    C1      16.287958   15.181432   21.255850 C.3        1 MOL1         0.2972
       2    H1      15.228145   15.053926   21.001744 H          1 MOL1         0.0751
       3    O1      16.583877   16.542072   21.634788 O.3        1 MOL1        -0.3740
       4    C2      16.643772   14.256333   22.442541 C.3        1 MOL1         0.1003
       5    H2      16.404381   13.227434   22.145005 H          1 MOL1         0.0783
       6    O2      15.843336   14.618198   23.581006 O.3        1 MOL1        -0.5519
       7    H3      15.758995   15.603572   23.574870 H          1 MOL1         0.3769
       8    C3      18.158894   14.313561   22.766757 C.3        1 MOL1         0.1053
       9    H4      18.370379   15.301791   23.191243 H          1 MOL1         0.0783
      10    O3      18.490924   13.290348   23.713750 O.3        1 MOL1        -0.5519
      11    H5      19.140928   13.693496   24.347159 H          1 MOL1         0.3769
      12    C4      19.031534   14.135982   21.493943 C.3        1 MOL1         0.1018
      13    H6      18.978488   13.081870   21.191891 H          1 MOL1         0.0783
      14    C5      18.539169   15.036478   20.320413 C.3        1 MOL1         0.1043
      15    H7      18.726408   16.083856   20.590483 H          1 MOL1         0.0783
      16    O4      17.117563   14.832979   20.131684 O.3        1 MOL1        -0.3740
      17    C6      19.215254   14.793312   18.947217 C.3        1 MOL1         0.0138
      18    H8      20.102199   15.431647   18.874639 H          1 MOL1         0.0794
      19    H9      18.528199   15.125586   18.157556 H          1 MOL1         0.0794
      20    O5      19.579756   13.426898   18.728013 O.3        1 MOL1        -0.5486
      21    H10     20.459702   13.301772   19.153156 H          1 MOL1         0.3769
      22    C7      14.832644   20.344948   21.090950 C.3        1 MOL1         0.2972
      23    H11     14.083864   21.107088   20.841050 H          1 MOL1         0.0751
      24    O6      16.084300   20.944766   21.471293 O.3        1 MOL1        -0.3740
      25    C8      14.336844   19.507428   22.298435 C.3        1 MOL1         0.1003
      26    H12     13.357604   19.090003   22.030250 H          1 MOL1         0.0783
      27    O7      14.194254   20.345195   23.456979 O.3        1 MOL1        -0.5519
      28    H13     14.911653   21.022895   23.403759 H          1 MOL1         0.3769
      29    C9      15.291646   18.326106   22.600616 C.3        1 MOL1         0.1053
      30    H14     16.246426   18.731860   22.963465 H          1 MOL1         0.0783
      31    O8      14.704460   17.484426   23.599165 O.3        1 MOL1        -0.5519
      32    H15     14.398550   18.098400   24.303179 H          1 MOL1         0.3769
      33    C10     15.565326   17.511224   21.315679 C.3        1 MOL1         0.1018
      34    H16     14.626348   17.032234   21.008245 H          1 MOL1         0.0783
      35    C11     16.061738   18.438197   20.173680 C.3        1 MOL1         0.1043
      36    H17     17.005984   18.898606   20.490031 H          1 MOL1         0.0783
      37    O9      15.066104   19.471245   19.964093 O.3        1 MOL1        -0.3740
      38    C12     16.329417   17.733278   18.820019 C.3        1 MOL1         0.0138
      39    H18     17.337225   17.299793   18.848239 H          1 MOL1         0.0794
      40    H19     16.329946   18.489930   18.024826 H          1 MOL1         0.0794
      41    O10     15.374862   16.709910   18.519207 O.3        1 MOL1        -0.5486
      42    H20     15.731305   15.875274   18.900092 H          1 MOL1         0.3769
      43    C13     18.494307   24.238309   20.769947 C.3        1 MOL1         0.2972
      44    H21     18.947493   25.197444   20.487918 H          1 MOL1         0.0751
      45    O11     19.488549   23.273842   21.169983 O.3        1 MOL1        -0.3740
      46    C14     17.467514   24.410910   21.919055 C.3        1 MOL1         0.1003
      47    H22     16.655629   25.043212   21.536681 H          1 MOL1         0.0783
      48    O12     18.049803   25.048352   23.065556 O.3        1 MOL1        -0.5519
      49    H23     18.805846   24.481294   23.362838 H          1 MOL1         0.3769
      50    C15     16.862374   23.037858   22.300933 C.3        1 MOL1         0.1053
      51    H24     17.662079   22.415487   22.726619 H          1 MOL1         0.0783
      52    O13     15.825702   23.222042   23.271621 O.3        1 MOL1        -0.5519
      53    H25     16.199503   23.846392   23.932272 H          1 MOL1         0.3769
      54    C16     16.289190   22.310399   21.057626 C.3        1 MOL1         0.1018
      55    H26     15.346581   22.804258   20.788390 H          1 MOL1         0.0783
      56    C17     17.262009   22.336826   19.839129 C.3        1 MOL1         0.1043
      57    H27     18.100828   21.665894   20.054225 H          1 MOL1         0.0783
      58    O14     17.772886   23.680796   19.650568 O.3        1 MOL1        -0.3740
      59    C18     16.655292   21.861544   18.495274 C.3        1 MOL1         0.0138
      60    H28     16.724782   20.768145   18.448445 H          1 MOL1         0.0794
      61    H29     17.275762   22.251855   17.677583 H          1 MOL1         0.0794
      62    O15     15.294432   22.267930   18.313607 O.3        1 MOL1        -0.5486
      63    H30     14.733604   21.525517   18.628749 H          1 MOL1         0.3769
      64    C19     23.434557   22.650922   22.109811 C.3        1 MOL1         0.2972
      65    H31     24.497806   22.704599   22.377660 H          1 MOL1         0.0751
      66    O16     23.050340   21.318673   21.721850 O.3        1 MOL1        -0.3740
      67    C20     22.563461   23.073363   23.315245 C.3        1 MOL1         0.1003
      68    H32     22.809463   24.117177   23.549856 H          1 MOL1         0.0783
      69    O17     22.843284   22.251296   24.460210 O.3        1 MOL1        -0.5519
      70    H33     23.465473   21.544566   24.159941 H          1 MOL1         0.3769
      71    C21     21.063108   23.001909   22.951790 C.3        1 MOL1         0.1053
      72    H34     20.800201   21.948566   22.794255 H          1 MOL1         0.0783
      73    O18     20.297124   23.526401   24.039859 O.3        1 MOL1        -0.5519
      74    H35     20.677694   23.095558   24.838326 H          1 MOL1         0.3769
      75    C22     20.751633   23.775524   21.644228 C.3        1 MOL1         0.1018
      76    H36     20.714604   24.849982   21.867733 H          1 MOL1         0.0783
      77    C23     21.780171   23.493162   20.510412 C.3        1 MOL1         0.1043
      78    H37     21.578505   22.486216   20.124938 H          1 MOL1         0.0783
      79    O19     23.141167   23.538005   21.010763 O.3        1 MOL1        -0.3740
      80    C24     21.662930   24.467726   19.314398 C.3        1 MOL1         0.0138
      81    H38     20.728741   24.250595   18.778848 H          1 MOL1         0.0794
      82    H39     22.490242   24.271487   18.619124 H          1 MOL1         0.0794
      83    O20     21.676116   25.838559   19.731814 O.3        1 MOL1        -0.5486
      84    H40     21.676082   26.396234   18.923327 H          1 MOL1         0.3769
      85    C25     24.929876   17.641779   21.019947 C.3        1 MOL1         0.2972
      86    H41     25.651888   16.877707   20.706555 H          1 MOL1         0.0751
      87    O21     23.695492   17.058613   21.476557 O.3        1 MOL1        -0.3740
      88    C26     25.507917   18.479124   22.191058 C.3        1 MOL1         0.1003
      89    H42     26.431664   18.951796   21.832880 H          1 MOL1         0.0783
      90    O22     25.815492   17.643550   23.317940 O.3        1 MOL1        -0.5519
      91    H43     25.094216   16.967782   23.390459 H          1 MOL1         0.3769
      92    C27     24.525826   19.604022   22.600623 C.3        1 MOL1         0.1053
      93    H44     23.618744   19.138514   23.007876 H          1 MOL1         0.0783
      94    O23     25.136442   20.432053   23.595783 O.3        1 MOL1        -0.5519
      95    H45     25.567229   19.802532   24.217173 H          1 MOL1         0.3769
      96    C28     24.129190   20.441877   21.359871 C.3        1 MOL1         0.1018
      97    H46     25.006299   21.003567   21.012017 H          1 MOL1         0.0783
      98    C29     23.620853   19.539683   20.205697 C.3        1 MOL1         0.1043
      99    H47     22.695927   19.048512   20.532200 H          1 MOL1         0.0783
     100    O24     24.626670   18.534701   19.923340 O.3        1 MOL1        -0.3740
     101    C30     23.285055   20.309130   18.901917 C.3        1 MOL1         0.0138
     102    H48     22.242021   20.645925   18.961841 H          1 MOL1         0.0794
     103    H49     23.346703   19.612395   18.055468 H          1 MOL1         0.0794
     104    O25     24.139086   21.438723   18.677579 O.3        1 MOL1        -0.5486
     105    H50     23.950969   22.092362   19.389075 H          1 MOL1         0.3769
     106    C31     21.430969   13.593567   21.527072 C.3        1 MOL1         0.2972
     107    H51     21.054666   12.564839   21.462134 H          1 MOL1         0.0751
     108    O26     20.374196   14.518539   21.869787 O.3        1 MOL1        -0.3740
     109    C32     22.547184   13.668761   22.598811 C.3        1 MOL1         0.1003
     110    H52     23.380803   13.055611   22.232957 H          1 MOL1         0.0783
     111    O27     22.108565   13.119846   23.852813 O.3        1 MOL1        -0.5519
     112    H53     21.548251   13.789717   24.320976 H          1 MOL1         0.3769
     113    C33     23.058318   15.125339   22.717462 C.3        1 MOL1         0.1053
     114    H54     22.219551   15.763987   23.014176 H          1 MOL1         0.0783
     115    O28     24.103636   15.227853   23.690408 O.3        1 MOL1        -0.5519
     116    H55     23.632419   15.197159   24.565162 H          1 MOL1         0.3769
     117    C34     23.551080   15.632611   21.342937 C.3        1 MOL1         0.1018
     118    H56     24.500145   15.134849   21.106092 H          1 MOL1         0.0783
     119    C35     22.506075   15.372225   20.220274 C.3        1 MOL1         0.1043
     120    H57     21.662241   16.052394   20.392625 H          1 MOL1         0.0783
     121    O29     22.020970   14.003214   20.272996 O.3        1 MOL1        -0.3740
     122    C36     23.034833   15.649450   18.790940 C.3        1 MOL1         0.0138
     123    H58     23.122205   16.734951   18.649984 H          1 MOL1         0.0794
     124    H59     22.290277   15.290448   18.068520 H          1 MOL1         0.0794
     125    O30     24.296693   15.020677   18.537433 O.3        1 MOL1        -0.5486
     126    H60     25.000261   15.646743   18.809044 H          1 MOL1         0.3769
     127    C1      20.946272   15.655037   25.395804 C.2        1 MOL1         0.6173
     128    O1      22.125963   15.624809   25.692734 O.co2      1 MOL1        -0.6755
     129    O2      20.232713   14.673110   25.461504 O.co2      1 MOL1        -0.6755
     130    C2      20.393367   16.842852   24.695307 C.2        1 MOL1        -0.1504
     131    H1      19.338135   16.797664   24.443476 H          1 MOL1         0.0814
     132    C3      21.136689   17.902195   24.307234 C.2        1 MOL1        -0.1394
     133    H2      22.201945   17.949097   24.530828 H          1 MOL1         0.0817
     134    C4      20.587444   19.037747   23.474244 C.3        1 MOL1        -0.1849
     135    H3      21.360189   19.806909   23.357759 H          1 MOL1         0.0736
     136    H4      19.742696   19.513435   23.989909 H          1 MOL1         0.0736
     137    C5      20.140014   18.534834   22.084068 C.3        1 MOL1        -0.1866
     138    H5      20.962548   17.983452   21.611891 H          1 MOL1         0.0738
     139    H6      19.308623   17.826387   22.198917 H          1 MOL1         0.0738
     140    C6      19.699151   19.692450   21.170855 C.3        1 MOL1        -0.2879
     141    H7      20.523817   20.394552   21.000311 H          1 MOL1         0.0750
     142    H8      19.366842   19.315226   20.196053 H          1 MOL1         0.0750
     143    H9      18.870272   20.244252   21.631579 H          1 MOL1         0.0750
@<TRIPOS>BOND
    1     1     2    1
    2     1     3    1
    3     1     4    1
    4     4     5    1
    5     4     6    1
    6     6     7    1
    7     4     8    1
    8     8     9    1
    9     8    10    1
   10    10    11    1
   11     8    12    1
   12    12    13    1
   13    12    14    1
   14    14    15    1
   15     1    16    1
   16    14    16    1
   17    14    17    1
   18    17    18    1
   19    17    19    1
   20    17    20    1
   21    20    21    1
   22    22    23    1
   23    22    24    1
   24    22    25    1
   25    25    26    1
   26    25    27    1
   27    27    28    1
   28    25    29    1
   29    29    30    1
   30    29    31    1
   31    31    32    1
   32     3    33    1
   33    29    33    1
   34    33    34    1
   35    33    35    1
   36    35    36    1
   37    22    37    1
   38    35    37    1
   39    35    38    1
   40    38    39    1
   41    38    40    1
   42    38    41    1
   43    41    42    1
   44    43    44    1
   45    43    45    1
   46    43    46    1
   47    46    47    1
   48    46    48    1
   49    48    49    1
   50    46    50    1
   51    50    51    1
   52    50    52    1
   53    52    53    1
   54    24    54    1
   55    50    54    1
   56    54    55    1
   57    54    56    1
   58    56    57    1
   59    43    58    1
   60    56    58    1
   61    56    59    1
   62    59    60    1
   63    59    61    1
   64    59    62    1
   65    62    63    1
   66    64    65    1
   67    64    66    1
   68    64    67    1
   69    67    68    1
   70    67    69    1
   71    69    70    1
   72    67    71    1
   73    71    72    1
   74    71    73    1
   75    73    74    1
   76    45    75    1
   77    71    75    1
   78    75    76    1
   79    75    77    1
   80    77    78    1
   81    64    79    1
   82    77    79    1
   83    77    80    1
   84    80    81    1
   85    80    82    1
   86    80    83    1
   87    83    84    1
   88    85    86    1
   89    85    87    1
   90    85    88    1
   91    88    89    1
   92    88    90    1
   93    90    91    1
   94    88    92    1
   95    92    93    1
   96    92    94    1
   97    94    95    1
   98    66    96    1
   99    92    96    1
  100    96    97    1
  101    96    98    1
  102    98    99    1
  103    85   100    1
  104    98   100    1
  105    98   101    1
  106   101   102    1
  107   101   103    1
  108   101   104    1
  109   104   105    1
  110   106   107    1
  111    12   108    1
  112   106   108    1
  113   106   109    1
  114   109   110    1
  115   109   111    1
  116   111   112    1
  117   109   113    1
  118   113   114    1
  119   113   115    1
  120   115   116    1
  121    87   117    1
  122   113   117    1
  123   117   118    1
  124   117   119    1
  125   119   120    1
  126   106   121    1
  127   119   121    1
  128   119   122    1
  129   122   123    1
  130   122   124    1
  131   122   125    1
  132   125   126    1
  133   127   128    1
  134   127   129    2
  135   127   130    1
  136   130   131    1
  137   130   132    2
  138   132   133    1
  139   132   134    1
  140   134   135    1
  141   134   136    1
  142   134   137    1
  143   137   138    1
  144   137   139    1
  145   137   140    1
  146   140   141    1
  147   140   142    1
  148   140   143    1
@<TRIPOS>SUBSTRUCTURE
       1 MOL1            1 RESIDUE      1      MOL     
       2 MOL1          143 RESIDUE      1      MOL     
@<SCITEGIC>MOL_PROPERTY
feprocess Rank
SciTegic.value.IntegerValue
80

@<SCITEGIC>MOL_PROPERTY
Conf_Id
SciTegic.value.IntegerValue
830

@<SCITEGIC>MOL_PROPERTY
Probability
SciTegic.value.DoubleValue
0.00

@<SCITEGIC>MOL_PROPERTY
G
SciTegic.value.DoubleValue
500.579

@<SCITEGIC>MOL_PROPERTY
E
SciTegic.value.DoubleValue
318.279

@<SCITEGIC>MOL_PROPERTY
-TS
SciTegic.value.DoubleValue
182.299

@<SCITEGIC>MOL_PROPERTY
U+W
SciTegic.value.DoubleValue
192.191

@<SCITEGIC>MOL_PROPERTY
U
SciTegic.value.DoubleValue
269.414

@<SCITEGIC>MOL_PROPERTY
W
SciTegic.value.DoubleValue
-77.223

@<SCITEGIC>MOL_PROPERTY
W(PB)
SciTegic.value.DoubleValue
-83.207

@<SCITEGIC>MOL_PROPERTY
W(SA)
SciTegic.value.DoubleValue
5.984

@<SCITEGIC>MOL_PROPERTY
Valence
SciTegic.value.DoubleValue
154.071

@<SCITEGIC>MOL_PROPERTY
Coulomb
SciTegic.value.DoubleValue
140.070

@<SCITEGIC>MOL_PROPERTY
VdW
SciTegic.value.DoubleValue
-24.728

@<SCITEGIC>MOL_PROPERTY
VdW6
SciTegic.value.DoubleValue
-181.737

@<SCITEGIC>MOL_PROPERTY
VdW12
SciTegic.value.DoubleValue
157.009

@<SCITEGIC>MOL_PROPERTY
Bond
SciTegic.value.DoubleValue
4.921

@<SCITEGIC>MOL_PROPERTY
Angle
SciTegic.value.DoubleValue
14.546

@<SCITEGIC>MOL_PROPERTY
Pdih
SciTegic.value.DoubleValue
134.495

@<SCITEGIC>MOL_PROPERTY
Idih
SciTegic.value.DoubleValue
0.109

@<SCITEGIC>MOL_PROPERTY
Tether
SciTegic.value.DoubleValue
0.000

@<TRIPOS>MOLECULE
CD_guest-s19_fast_vm2_rndm.mol2 : feprocess host+ligand conformer 81
         143         148           2
SMALL
USER_CHARGES
 
@<TRIPOS>ATOM
       1    C1      16.146116   15.152767   21.128488 C.3        1 MOL1         0.2972
       2    H1      15.105232   14.926811   20.863919 H          1 MOL1         0.0751
       3    O1      16.333124   16.558092   21.380902 O.3        1 MOL1        -0.3740
       4    C2      16.532806   14.400976   22.426524 C.3        1 MOL1         0.1003
       5    H2      16.408316   13.326258   22.240687 H          1 MOL1         0.0783
       6    O2      15.672568   14.803482   23.503926 O.3        1 MOL1        -0.5519
       7    H3      15.456967   15.754422   23.347514 H          1 MOL1         0.3769
       8    C3      18.013875   14.658959   22.794319 C.3        1 MOL1         0.1053
       9    H4      18.115583   15.715784   23.073579 H          1 MOL1         0.0783
      10    O3      18.385523   13.832346   23.901234 O.3        1 MOL1        -0.5519
      11    H5      17.651883   13.926224   24.548720 H          1 MOL1         0.3769
      12    C4      18.942324   14.380591   21.586532 C.3        1 MOL1         0.1018
      13    H6      18.985560   13.296652   21.416770 H          1 MOL1         0.0783
      14    C5      18.442916   15.080078   20.292254 C.3        1 MOL1         0.1043
      15    H7      18.537997   16.164304   20.433606 H          1 MOL1         0.0783
      16    O4      17.047799   14.747507   20.074532 O.3        1 MOL1        -0.3740
      17    C6      19.243313   14.719723   19.012434 C.3        1 MOL1         0.0138
      18    H8      20.056943   15.445885   18.895235 H          1 MOL1         0.0794
      19    H9      18.585712   14.841677   18.141419 H          1 MOL1         0.0794
      20    O5      19.783827   13.392828   19.033597 O.3        1 MOL1        -0.5486
      21    H10     20.522536   13.388451   19.686388 H          1 MOL1         0.3769
      22    C7      14.996133   20.348941   20.312415 C.3        1 MOL1         0.2972
      23    H11     14.465343   21.211587   19.889571 H          1 MOL1         0.0751
      24    O6      16.227575   20.743922   20.949975 O.3        1 MOL1        -0.3740
      25    C8      14.112556   19.595313   21.341522 C.3        1 MOL1         0.1003
      26    H12     13.223968   19.237746   20.805227 H          1 MOL1         0.0783
      27    O7      13.694885   20.454805   22.413218 O.3        1 MOL1        -0.5519
      28    H13     14.515514   20.809756   22.840616 H          1 MOL1         0.3769
      29    C9      14.861767   18.359746   21.897610 C.3        1 MOL1         0.1053
      30    H14     15.714912   18.717644   22.490582 H          1 MOL1         0.0783
      31    O8      13.980311   17.599083   22.731214 O.3        1 MOL1        -0.5519
      32    H15     13.535926   18.260098   23.306944 H          1 MOL1         0.3769
      33    C10     15.405348   17.464347   20.754344 C.3        1 MOL1         0.1018
      34    H16     14.556782   16.936700   20.299762 H          1 MOL1         0.0783
      35    C11     16.154847   18.289886   19.665374 C.3        1 MOL1         0.1043
      36    H17     17.088425   18.669566   20.098800 H          1 MOL1         0.0783
      37    O9      15.327016   19.410575   19.266009 O.3        1 MOL1        -0.3740
      38    C12     16.547501   17.507388   18.385830 C.3        1 MOL1         0.0138
      39    H18     17.549169   17.085560   18.528923 H          1 MOL1         0.0794
      40    H19     16.623666   18.218816   17.552701 H          1 MOL1         0.0794
      41    O10     15.628384   16.461573   18.052559 O.3        1 MOL1        -0.5486
      42    H20     15.880272   15.682623   18.600049 H          1 MOL1         0.3769
      43    C13     18.469937   23.995973   22.132025 C.3        1 MOL1         0.2972
      44    H21     18.863866   24.973525   22.439111 H          1 MOL1         0.0751
      45    O11     19.524042   23.040697   21.919648 O.3        1 MOL1        -0.3740
      46    C14     17.529526   23.437425   23.226266 C.3        1 MOL1         0.1003
      47    H22     16.691061   24.138179   23.331192 H          1 MOL1         0.0783
      48    O12     18.221078   23.333548   24.481405 O.3        1 MOL1        -0.5519
      49    H23     19.188417   23.361403   24.278956 H          1 MOL1         0.3769
      50    C15     16.956247   22.063311   22.808966 C.3        1 MOL1         0.1053
      51    H24     17.781772   21.341077   22.793430 H          1 MOL1         0.0783
      52    O13     15.978043   21.652024   23.769188 O.3        1 MOL1        -0.5519
      53    H25     16.408746   21.797360   24.641197 H          1 MOL1         0.3769
      54    C16     16.328060   22.111356   21.392821 C.3        1 MOL1         0.1018
      55    H26     15.345513   22.597159   21.460404 H          1 MOL1         0.0783
      56    C17     17.224370   22.853316   20.359080 C.3        1 MOL1         0.1043
      57    H27     18.075103   22.198497   20.132326 H          1 MOL1         0.0783
      58    O14     17.721367   24.104289   20.903649 O.3        1 MOL1        -0.3740
      59    C18     16.511033   23.153335   19.019151 C.3        1 MOL1         0.0138
      60    H28     16.367223   22.206664   18.480925 H          1 MOL1         0.0794
      61    H29     17.169903   23.780712   18.403770 H          1 MOL1         0.0794
      62    O15     15.246631   23.798934   19.213695 O.3        1 MOL1        -0.5486
      63    H30     14.892770   24.034417   18.328329 H          1 MOL1         0.3769
      64    C19     23.659221   22.756702   21.549990 C.3        1 MOL1         0.2972
      65    H31     24.721798   22.978445   21.389147 H          1 MOL1         0.0751
      66    O16     23.452337   21.342943   21.773299 O.3        1 MOL1        -0.3740
      67    C20     23.149394   23.555086   22.779939 C.3        1 MOL1         0.1003
      68    H32     23.279960   24.619675   22.546429 H          1 MOL1         0.0783
      69    O17     23.901217   23.250127   23.964535 O.3        1 MOL1        -0.5519
      70    H33     23.726470   22.299675   24.202792 H          1 MOL1         0.3769
      71    C21     21.643406   23.304457   23.008537 C.3        1 MOL1         0.1053
      72    H34     21.518598   22.246969   23.256531 H          1 MOL1         0.0783
      73    O18     21.164500   24.124186   24.079879 O.3        1 MOL1        -0.5519
      74    H35     21.851752   24.055933   24.780101 H          1 MOL1         0.3769
      75    C22     20.839614   23.582944   21.719491 C.3        1 MOL1         0.1018
      76    H36     20.820714   24.665387   21.536432 H          1 MOL1         0.0783
      77    C23     21.454276   22.861554   20.490989 C.3        1 MOL1         0.1043
      78    H37     21.330997   21.781077   20.639604 H          1 MOL1         0.0783
      79    O19     22.871163   23.168247   20.407243 O.3        1 MOL1        -0.3740
      80    C24     20.775272   23.214585   19.139843 C.3        1 MOL1         0.0138
      81    H38     19.975460   22.486378   18.954821 H          1 MOL1         0.0794
      82    H39     21.509492   23.091069   18.332782 H          1 MOL1         0.0794
      83    O20     20.230345   24.539400   19.103335 O.3        1 MOL1        -0.5486
      84    H40     19.433082   24.542726   19.682679 H          1 MOL1         0.3769
      85    C25     24.856825   17.598645   20.528550 C.3        1 MOL1         0.2972
      86    H41     25.406335   16.761505   20.079210 H          1 MOL1         0.0751
      87    O21     23.584909   17.172602   21.061732 O.3        1 MOL1        -0.3740
      88    C26     25.692011   18.292899   21.636160 C.3        1 MOL1         0.1003
      89    H42     26.576337   18.726249   21.151737 H          1 MOL1         0.0783
      90    O22     26.132864   17.346538   22.621217 O.3        1 MOL1        -0.5519
      91    H43     25.332745   17.060136   23.126751 H          1 MOL1         0.3769
      92    C27     24.874407   19.459337   22.253973 C.3        1 MOL1         0.1053
      93    H44     23.983732   19.030804   22.731129 H          1 MOL1         0.0783
      94    O23     25.649530   20.165806   23.229348 O.3        1 MOL1        -0.5519
      95    H45     25.009338   20.404265   23.949414 H          1 MOL1         0.3769
      96    C28     24.404934   20.447579   21.149980 C.3        1 MOL1         0.1018
      97    H46     25.290104   20.988296   20.790761 H          1 MOL1         0.0783
      98    C29     23.735042   19.700759   19.952490 C.3        1 MOL1         0.1043
      99    H47     22.770679   19.302797   20.292894 H          1 MOL1         0.0783
     100    O24     24.584653   18.603066   19.531226 O.3        1 MOL1        -0.3740
     101    C30     23.451480   20.552506   18.689580 C.3        1 MOL1         0.0138
     102    H48     22.449554   20.984959   18.776638 H          1 MOL1         0.0794
     103    H49     23.424170   19.883415   17.819100 H          1 MOL1         0.0794
     104    O25     24.415010   21.588878   18.474163 O.3        1 MOL1        -0.5486
     105    H50     24.135604   22.348986   19.035034 H          1 MOL1         0.3769
     106    C31     21.269456   13.974380   22.199280 C.3        1 MOL1         0.2972
     107    H51     20.849742   13.007703   22.506712 H          1 MOL1         0.0751
     108    O26     20.232286   14.929761   21.910162 O.3        1 MOL1        -0.3740
     109    C32     22.148014   14.546222   23.337129 C.3        1 MOL1         0.1003
     110    H52     22.953034   13.824825   23.527138 H          1 MOL1         0.0783
     111    O27     21.354544   14.692689   24.526027 O.3        1 MOL1        -0.5519
     112    H53     20.418755   14.789186   24.230526 H          1 MOL1         0.3769
     113    C33     22.804763   15.889947   22.928056 C.3        1 MOL1         0.1053
     114    H54     22.022220   16.659610   22.887259 H          1 MOL1         0.0783
     115    O28     23.806252   16.246942   23.889164 O.3        1 MOL1        -0.5519
     116    H55     23.417292   16.926225   24.503921 H          1 MOL1         0.3769
     117    C34     23.473252   15.813367   21.529182 C.3        1 MOL1         0.1018
     118    H56     24.453677   15.329227   21.631001 H          1 MOL1         0.0783
     119    C35     22.615054   15.062257   20.473548 C.3        1 MOL1         0.1043
     120    H57     21.783685   15.723648   20.201320 H          1 MOL1         0.0783
     121    O29     22.081569   13.828229   21.017162 O.3        1 MOL1        -0.3740
     122    C36     23.381292   14.734730   19.169575 C.3        1 MOL1         0.0138
     123    H58     23.565740   15.673046   18.629140 H          1 MOL1         0.0794
     124    H59     22.739177   14.112410   18.531773 H          1 MOL1         0.0794
     125    O30     24.624260   14.069492   19.425508 O.3        1 MOL1        -0.5486
     126    H60     25.014662   13.822735   18.558804 H          1 MOL1         0.3769
     127    C1      22.793320   19.638319   25.062984 C.2        1 MOL1         0.6173
     128    O1      23.295477   18.564423   25.335009 O.co2      1 MOL1        -0.6755
     129    O2      23.428802   20.676160   25.003361 O.co2      1 MOL1        -0.6755
     130    C2      21.367455   19.683900   24.649344 C.2        1 MOL1        -0.1504
     131    H1      20.966965   20.664895   24.426899 H          1 MOL1         0.0814
     132    C3      20.582998   18.595429   24.495015 C.2        1 MOL1        -0.1394
     133    H2      20.956874   17.594982   24.707051 H          1 MOL1         0.0817
     134    C4      19.169975   18.675457   23.961959 C.3        1 MOL1        -0.1849
     135    H3      18.737764   19.663189   24.168759 H          1 MOL1         0.0736
     136    H4      18.539778   17.947446   24.489311 H          1 MOL1         0.0736
     137    C5      19.112026   18.388173   22.445320 C.3        1 MOL1        -0.1866
     138    H5      19.498683   17.381734   22.255085 H          1 MOL1         0.0738
     139    H6      18.063520   18.395212   22.130138 H          1 MOL1         0.0738
     140    C6      19.904610   19.395784   21.586123 C.3        1 MOL1        -0.2879
     141    H7      19.545676   20.416520   21.750799 H          1 MOL1         0.0750
     142    H8      20.973642   19.365820   21.831472 H          1 MOL1         0.0750
     143    H9      19.795542   19.163916   20.519593 H          1 MOL1         0.0750
@<TRIPOS>BOND
    1     1     2    1
    2     1     3    1
    3     1     4    1
    4     4     5    1
    5     4     6    1
    6     6     7    1
    7     4     8    1
    8     8     9    1
    9     8    10    1
   10    10    11    1
   11     8    12    1
   12    12    13    1
   13    12    14    1
   14    14    15    1
   15     1    16    1
   16    14    16    1
   17    14    17    1
   18    17    18    1
   19    17    19    1
   20    17    20    1
   21    20    21    1
   22    22    23    1
   23    22    24    1
   24    22    25    1
   25    25    26    1
   26    25    27    1
   27    27    28    1
   28    25    29    1
   29    29    30    1
   30    29    31    1
   31    31    32    1
   32     3    33    1
   33    29    33    1
   34    33    34    1
   35    33    35    1
   36    35    36    1
   37    22    37    1
   38    35    37    1
   39    35    38    1
   40    38    39    1
   41    38    40    1
   42    38    41    1
   43    41    42    1
   44    43    44    1
   45    43    45    1
   46    43    46    1
   47    46    47    1
   48    46    48    1
   49    48    49    1
   50    46    50    1
   51    50    51    1
   52    50    52    1
   53    52    53    1
   54    24    54    1
   55    50    54    1
   56    54    55    1
   57    54    56    1
   58    56    57    1
   59    43    58    1
   60    56    58    1
   61    56    59    1
   62    59    60    1
   63    59    61    1
   64    59    62    1
   65    62    63    1
   66    64    65    1
   67    64    66    1
   68    64    67    1
   69    67    68    1
   70    67    69    1
   71    69    70    1
   72    67    71    1
   73    71    72    1
   74    71    73    1
   75    73    74    1
   76    45    75    1
   77    71    75    1
   78    75    76    1
   79    75    77    1
   80    77    78    1
   81    64    79    1
   82    77    79    1
   83    77    80    1
   84    80    81    1
   85    80    82    1
   86    80    83    1
   87    83    84    1
   88    85    86    1
   89    85    87    1
   90    85    88    1
   91    88    89    1
   92    88    90    1
   93    90    91    1
   94    88    92    1
   95    92    93    1
   96    92    94    1
   97    94    95    1
   98    66    96    1
   99    92    96    1
  100    96    97    1
  101    96    98    1
  102    98    99    1
  103    85   100    1
  104    98   100    1
  105    98   101    1
  106   101   102    1
  107   101   103    1
  108   101   104    1
  109   104   105    1
  110   106   107    1
  111    12   108    1
  112   106   108    1
  113   106   109    1
  114   109   110    1
  115   109   111    1
  116   111   112    1
  117   109   113    1
  118   113   114    1
  119   113   115    1
  120   115   116    1
  121    87   117    1
  122   113   117    1
  123   117   118    1
  124   117   119    1
  125   119   120    1
  126   106   121    1
  127   119   121    1
  128   119   122    1
  129   122   123    1
  130   122   124    1
  131   122   125    1
  132   125   126    1
  133   127   128    1
  134   127   129    2
  135   127   130    1
  136   130   131    1
  137   130   132    2
  138   132   133    1
  139   132   134    1
  140   134   135    1
  141   134   136    1
  142   134   137    1
  143   137   138    1
  144   137   139    1
  145   137   140    1
  146   140   141    1
  147   140   142    1
  148   140   143    1
@<TRIPOS>SUBSTRUCTURE
       1 MOL1            1 RESIDUE      1      MOL     
       2 MOL1          143 RESIDUE      1      MOL     
@<SCITEGIC>MOL_PROPERTY
feprocess Rank
SciTegic.value.IntegerValue
81

@<SCITEGIC>MOL_PROPERTY
Conf_Id
SciTegic.value.IntegerValue
557

@<SCITEGIC>MOL_PROPERTY
Probability
SciTegic.value.DoubleValue
0.00

@<SCITEGIC>MOL_PROPERTY
G
SciTegic.value.DoubleValue
500.580

@<SCITEGIC>MOL_PROPERTY
E
SciTegic.value.DoubleValue
316.905

@<SCITEGIC>MOL_PROPERTY
-TS
SciTegic.value.DoubleValue
183.675

@<SCITEGIC>MOL_PROPERTY
U+W
SciTegic.value.DoubleValue
190.817

@<SCITEGIC>MOL_PROPERTY
U
SciTegic.value.DoubleValue
267.309

@<SCITEGIC>MOL_PROPERTY
W
SciTegic.value.DoubleValue
-76.492

@<SCITEGIC>MOL_PROPERTY
W(PB)
SciTegic.value.DoubleValue
-82.426

@<SCITEGIC>MOL_PROPERTY
W(SA)
SciTegic.value.DoubleValue
5.935

@<SCITEGIC>MOL_PROPERTY
Valence
SciTegic.value.DoubleValue
152.354

@<SCITEGIC>MOL_PROPERTY
Coulomb
SciTegic.value.DoubleValue
138.527

@<SCITEGIC>MOL_PROPERTY
VdW
SciTegic.value.DoubleValue
-23.573

@<SCITEGIC>MOL_PROPERTY
VdW6
SciTegic.value.DoubleValue
-183.604

@<SCITEGIC>MOL_PROPERTY
VdW12
SciTegic.value.DoubleValue
160.031

@<SCITEGIC>MOL_PROPERTY
Bond
SciTegic.value.DoubleValue
5.186

@<SCITEGIC>MOL_PROPERTY
Angle
SciTegic.value.DoubleValue
14.546

@<SCITEGIC>MOL_PROPERTY
Pdih
SciTegic.value.DoubleValue
132.585

@<SCITEGIC>MOL_PROPERTY
Idih
SciTegic.value.DoubleValue
0.037

@<SCITEGIC>MOL_PROPERTY
Tether
SciTegic.value.DoubleValue
0.000

@<TRIPOS>MOLECULE
CD_guest-s19_fast_vm2_rndm.mol2 : feprocess host+ligand conformer 82
         143         148           2
SMALL
USER_CHARGES
 
@<TRIPOS>ATOM
       1    C1      16.097453   15.148711   21.355390 C.3        1 MOL1         0.2972
       2    H1      15.039579   14.934758   21.155888 H          1 MOL1         0.0751
       3    O1      16.345868   16.567868   21.433031 O.3        1 MOL1        -0.3740
       4    C2      16.510912   14.536633   22.716396 C.3        1 MOL1         0.1003
       5    H2      16.373860   13.449340   22.658651 H          1 MOL1         0.0783
       6    O2      15.664118   15.072450   23.746577 O.3        1 MOL1        -0.5519
       7    H3      15.499807   16.015552   23.510882 H          1 MOL1         0.3769
       8    C3      18.009948   14.821780   22.996349 C.3        1 MOL1         0.1053
       9    H4      18.121576   15.905053   23.112573 H          1 MOL1         0.0783
      10    O3      18.445848   14.181211   24.198476 O.3        1 MOL1        -0.5519
      11    H5      19.061343   14.835186   24.614575 H          1 MOL1         0.3769
      12    C4      18.897279   14.367438   21.806628 C.3        1 MOL1         0.1018
      13    H6      18.920031   13.270100   21.787188 H          1 MOL1         0.0783
      14    C5      18.354184   14.897770   20.450228 C.3        1 MOL1         0.1043
      15    H7      18.478459   15.984019   20.456326 H          1 MOL1         0.0783
      16    O4      16.942131   14.589466   20.325688 O.3        1 MOL1        -0.3740
      17    C6      19.086418   14.366762   19.190777 C.3        1 MOL1         0.0138
      18    H8      19.928381   15.033603   18.969327 H          1 MOL1         0.0794
      19    H9      18.401237   14.430291   18.334874 H          1 MOL1         0.0794
      20    O5      19.563135   13.024709   19.337127 O.3        1 MOL1        -0.5486
      21    H10     20.393439   13.073691   19.866237 H          1 MOL1         0.3769
      22    C7      15.006886   20.301720   20.211138 C.3        1 MOL1         0.2972
      23    H11     14.492712   21.152128   19.745101 H          1 MOL1         0.0751
      24    O6      16.209072   20.713388   20.892929 O.3        1 MOL1        -0.3740
      25    C8      14.087041   19.572522   21.225291 C.3        1 MOL1         0.1003
      26    H12     13.224967   19.188370   20.664645 H          1 MOL1         0.0783
      27    O7      13.617389   20.463080   22.248829 O.3        1 MOL1        -0.5519
      28    H13     14.415377   20.869127   22.673529 H          1 MOL1         0.3769
      29    C9      14.825505   18.362989   21.851257 C.3        1 MOL1         0.1053
      30    H14     15.657173   18.747240   22.458636 H          1 MOL1         0.0783
      31    O8      13.921970   17.626118   22.681427 O.3        1 MOL1        -0.5519
      32    H15     13.445521   18.305044   23.208943 H          1 MOL1         0.3769
      33    C10     15.414598   17.433766   20.758714 C.3        1 MOL1         0.1018
      34    H16     14.591087   16.876543   20.293515 H          1 MOL1         0.0783
      35    C11     16.192285   18.228052   19.669793 C.3        1 MOL1         0.1043
      36    H17     17.103302   18.626324   20.130562 H          1 MOL1         0.0783
      37    O9      15.377716   19.333258   19.205394 O.3        1 MOL1        -0.3740
      38    C12     16.636682   17.398710   18.436165 C.3        1 MOL1         0.0138
      39    H18     17.642458   17.004487   18.621734 H          1 MOL1         0.0794
      40    H19     16.720724   18.074569   17.574674 H          1 MOL1         0.0794
      41    O10     15.749961   16.317528   18.126543 O.3        1 MOL1        -0.5486
      42    H20     15.954020   15.591300   18.760038 H          1 MOL1         0.3769
      43    C13     18.461888   23.999767   21.998968 C.3        1 MOL1         0.2972
      44    H21     18.840930   24.997047   22.255995 H          1 MOL1         0.0751
      45    O11     19.515912   23.018515   21.967318 O.3        1 MOL1        -0.3740
      46    C14     17.420557   23.549564   23.050746 C.3        1 MOL1         0.1003
      47    H22     16.593272   24.270812   23.027294 H          1 MOL1         0.0783
      48    O12     18.002569   23.538478   24.364314 O.3        1 MOL1        -0.5519
      49    H23     18.968276   23.351939   24.251875 H          1 MOL1         0.3769
      50    C15     16.849527   22.156647   22.698659 C.3        1 MOL1         0.1053
      51    H24     17.656853   21.421331   22.811149 H          1 MOL1         0.0783
      52    O13     15.787220   21.844985   23.605279 O.3        1 MOL1        -0.5519
      53    H25     16.144309   22.064883   24.494922 H          1 MOL1         0.3769
      54    C16     16.336561   22.106758   21.235797 C.3        1 MOL1         0.1018
      55    H26     15.374253   22.633119   21.182699 H          1 MOL1         0.0783
      56    C17     17.345924   22.730312   20.228215 C.3        1 MOL1         0.1043
      57    H27     18.198457   22.044717   20.140084 H          1 MOL1         0.0783
      58    O14     17.822496   24.015540   20.705988 O.3        1 MOL1        -0.3740
      59    C18     16.764530   22.919584   18.807055 C.3        1 MOL1         0.0138
      60    H28     16.640942   21.929659   18.347071 H          1 MOL1         0.0794
      61    H29     17.494186   23.472418   18.200350 H          1 MOL1         0.0794
      62    O15     15.507533   23.607562   18.825342 O.3        1 MOL1        -0.5486
      63    H30     15.236912   23.758880   17.893599 H          1 MOL1         0.3769
      64    C19     23.675356   22.712521   21.772782 C.3        1 MOL1         0.2972
      65    H31     24.747041   22.942005   21.713523 H          1 MOL1         0.0751
      66    O16     23.442245   21.290740   21.756201 O.3        1 MOL1        -0.3740
      67    C20     23.099035   23.255531   23.104473 C.3        1 MOL1         0.1003
      68    H32     23.266434   24.340317   23.122850 H          1 MOL1         0.0783
      69    O17     23.772701   22.650344   24.218923 O.3        1 MOL1        -0.5519
      70    H33     24.018904   21.738598   23.933088 H          1 MOL1         0.3769
      71    C21     21.575050   23.002246   23.192150 C.3        1 MOL1         0.1053
      72    H34     21.406745   21.918348   23.256093 H          1 MOL1         0.0783
      73    O18     21.048410   23.644277   24.357990 O.3        1 MOL1        -0.5519
      74    H35     21.671494   23.409365   25.081402 H          1 MOL1         0.3769
      75    C22     20.859563   23.532348   21.927735 C.3        1 MOL1         0.1018
      76    H36     20.886247   24.629747   21.946677 H          1 MOL1         0.0783
      77    C23     21.536072   23.024552   20.625166 C.3        1 MOL1         0.1043
      78    H37     21.401313   21.939033   20.574866 H          1 MOL1         0.0783
      79    O19     22.956617   23.316604   20.672126 O.3        1 MOL1        -0.3740
      80    C24     20.941153   23.611299   19.318501 C.3        1 MOL1         0.0138
      81    H38     20.088790   22.989667   19.015806 H          1 MOL1         0.0794
      82    H39     21.693684   23.531452   18.522810 H          1 MOL1         0.0794
      83    O20     20.510804   24.970156   19.452855 O.3        1 MOL1        -0.5486
      84    H40     19.609200   24.944066   19.847883 H          1 MOL1         0.3769
      85    C25     24.837799   17.658278   20.353685 C.3        1 MOL1         0.2972
      86    H41     25.364305   16.823111   19.874065 H          1 MOL1         0.0751
      87    O21     23.554344   17.244091   20.873247 O.3        1 MOL1        -0.3740
      88    C26     25.695301   18.294788   21.479979 C.3        1 MOL1         0.1003
      89    H42     26.584202   18.725064   21.000420 H          1 MOL1         0.0783
      90    O22     26.125737   17.328253   22.448492 O.3        1 MOL1        -0.5519
      91    H43     25.309527   16.987747   22.894171 H          1 MOL1         0.3769
      92    C27     24.915617   19.452394   22.150623 C.3        1 MOL1         0.1053
      93    H44     24.030106   19.031188   22.647115 H          1 MOL1         0.0783
      94    O23     25.749980   20.100510   23.116657 O.3        1 MOL1        -0.5519
      95    H45     26.167627   19.372106   23.627323 H          1 MOL1         0.3769
      96    C28     24.438731   20.484950   21.096676 C.3        1 MOL1         0.1018
      97    H46     25.309020   21.076436   20.784401 H          1 MOL1         0.0783
      98    C29     23.784897   19.816466   19.850573 C.3        1 MOL1         0.1043
      99    H47     22.805355   19.434688   20.155671 H          1 MOL1         0.0783
     100    O24     24.602090   18.709046   19.391929 O.3        1 MOL1        -0.3740
     101    C30     23.544475   20.761821   18.644794 C.3        1 MOL1         0.0138
     102    H48     22.553021   21.214263   18.746800 H          1 MOL1         0.0794
     103    H49     23.520039   20.157786   17.727951 H          1 MOL1         0.0794
     104    O25     24.527332   21.796119   18.524784 O.3        1 MOL1        -0.5486
     105    H50     24.267635   22.506948   19.154708 H          1 MOL1         0.3769
     106    C31     21.297790   13.997986   22.155172 C.3        1 MOL1         0.2972
     107    H51     20.938359   13.012466   22.477319 H          1 MOL1         0.0751
     108    O26     20.208823   14.934665   22.011794 O.3        1 MOL1        -0.3740
     109    C32     22.308456   14.545460   23.192322 C.3        1 MOL1         0.1003
     110    H52     23.171815   13.867807   23.190583 H          1 MOL1         0.0783
     111    O27     21.742454   14.555021   24.511707 O.3        1 MOL1        -0.5519
     112    H53     21.136614   15.338891   24.575282 H          1 MOL1         0.3769
     113    C33     22.804836   15.944635   22.756669 C.3        1 MOL1         0.1053
     114    H54     21.938776   16.608362   22.683266 H          1 MOL1         0.0783
     115    O28     23.733723   16.463429   23.715903 O.3        1 MOL1        -0.5519
     116    H55     23.184833   16.727881   24.500750 H          1 MOL1         0.3769
     117    C34     23.428423   15.883468   21.341079 C.3        1 MOL1         0.1018
     118    H56     24.397526   15.369831   21.393262 H          1 MOL1         0.0783
     119    C35     22.482124   15.157883   20.339921 C.3        1 MOL1         0.1043
     120    H57     21.629394   15.824300   20.157201 H          1 MOL1         0.0783
     121    O29     21.987690   13.904519   20.888506 O.3        1 MOL1        -0.3740
     122    C36     23.143293   14.868000   18.971779 C.3        1 MOL1         0.0138
     123    H58     23.286625   15.821693   18.445749 H          1 MOL1         0.0794
     124    H59     22.453386   14.262208   18.369022 H          1 MOL1         0.0794
     125    O30     24.401964   14.197958   19.113981 O.3        1 MOL1        -0.5486
     126    H60     24.726693   13.979129   18.213425 H          1 MOL1         0.3769
     127    C1      20.720644   17.623814   24.723833 C.2        1 MOL1         0.6173
     128    O1      21.717248   17.667381   25.418759 O.co2      1 MOL1        -0.6755
     129    O2      19.930000   16.697853   24.778416 O.co2      1 MOL1        -0.6755
     130    C2      20.633336   18.609631   23.610322 C.2        1 MOL1        -0.1504
     131    H1      21.429887   19.348872   23.570405 H          1 MOL1         0.0814
     132    C3      19.682351   18.578675   22.650024 C.2        1 MOL1        -0.1394
     133    H2      18.890513   17.835098   22.673168 H          1 MOL1         0.0817
     134    C4      19.647913   19.515211   21.465508 C.3        1 MOL1        -0.1849
     135    H3      20.372202   20.324430   21.604453 H          1 MOL1         0.0736
     136    H4      18.660143   19.981284   21.403871 H          1 MOL1         0.0736
     137    C5      19.943335   18.762611   20.153113 C.3        1 MOL1        -0.1866
     138    H5      20.958408   18.349325   20.181628 H          1 MOL1         0.0738
     139    H6      19.272001   17.904977   20.069690 H          1 MOL1         0.0738
     140    C6      19.760420   19.660540   18.913796 C.3        1 MOL1        -0.2879
     141    H7      18.722637   20.008348   18.832455 H          1 MOL1         0.0750
     142    H8      20.410010   20.539461   18.964883 H          1 MOL1         0.0750
     143    H9      20.005194   19.108512   17.997403 H          1 MOL1         0.0750
@<TRIPOS>BOND
    1     1     2    1
    2     1     3    1
    3     1     4    1
    4     4     5    1
    5     4     6    1
    6     6     7    1
    7     4     8    1
    8     8     9    1
    9     8    10    1
   10    10    11    1
   11     8    12    1
   12    12    13    1
   13    12    14    1
   14    14    15    1
   15     1    16    1
   16    14    16    1
   17    14    17    1
   18    17    18    1
   19    17    19    1
   20    17    20    1
   21    20    21    1
   22    22    23    1
   23    22    24    1
   24    22    25    1
   25    25    26    1
   26    25    27    1
   27    27    28    1
   28    25    29    1
   29    29    30    1
   30    29    31    1
   31    31    32    1
   32     3    33    1
   33    29    33    1
   34    33    34    1
   35    33    35    1
   36    35    36    1
   37    22    37    1
   38    35    37    1
   39    35    38    1
   40    38    39    1
   41    38    40    1
   42    38    41    1
   43    41    42    1
   44    43    44    1
   45    43    45    1
   46    43    46    1
   47    46    47    1
   48    46    48    1
   49    48    49    1
   50    46    50    1
   51    50    51    1
   52    50    52    1
   53    52    53    1
   54    24    54    1
   55    50    54    1
   56    54    55    1
   57    54    56    1
   58    56    57    1
   59    43    58    1
   60    56    58    1
   61    56    59    1
   62    59    60    1
   63    59    61    1
   64    59    62    1
   65    62    63    1
   66    64    65    1
   67    64    66    1
   68    64    67    1
   69    67    68    1
   70    67    69    1
   71    69    70    1
   72    67    71    1
   73    71    72    1
   74    71    73    1
   75    73    74    1
   76    45    75    1
   77    71    75    1
   78    75    76    1
   79    75    77    1
   80    77    78    1
   81    64    79    1
   82    77    79    1
   83    77    80    1
   84    80    81    1
   85    80    82    1
   86    80    83    1
   87    83    84    1
   88    85    86    1
   89    85    87    1
   90    85    88    1
   91    88    89    1
   92    88    90    1
   93    90    91    1
   94    88    92    1
   95    92    93    1
   96    92    94    1
   97    94    95    1
   98    66    96    1
   99    92    96    1
  100    96    97    1
  101    96    98    1
  102    98    99    1
  103    85   100    1
  104    98   100    1
  105    98   101    1
  106   101   102    1
  107   101   103    1
  108   101   104    1
  109   104   105    1
  110   106   107    1
  111    12   108    1
  112   106   108    1
  113   106   109    1
  114   109   110    1
  115   109   111    1
  116   111   112    1
  117   109   113    1
  118   113   114    1
  119   113   115    1
  120   115   116    1
  121    87   117    1
  122   113   117    1
  123   117   118    1
  124   117   119    1
  125   119   120    1
  126   106   121    1
  127   119   121    1
  128   119   122    1
  129   122   123    1
  130   122   124    1
  131   122   125    1
  132   125   126    1
  133   127   128    1
  134   127   129    2
  135   127   130    1
  136   130   131    1
  137   130   132    2
  138   132   133    1
  139   132   134    1
  140   134   135    1
  141   134   136    1
  142   134   137    1
  143   137   138    1
  144   137   139    1
  145   137   140    1
  146   140   141    1
  147   140   142    1
  148   140   143    1
@<TRIPOS>SUBSTRUCTURE
       1 MOL1            1 RESIDUE      1      MOL     
       2 MOL1          143 RESIDUE      1      MOL     
@<SCITEGIC>MOL_PROPERTY
feprocess Rank
SciTegic.value.IntegerValue
82

@<SCITEGIC>MOL_PROPERTY
Conf_Id
SciTegic.value.IntegerValue
741

@<SCITEGIC>MOL_PROPERTY
Probability
SciTegic.value.DoubleValue
0.00

@<SCITEGIC>MOL_PROPERTY
G
SciTegic.value.DoubleValue
500.584

@<SCITEGIC>MOL_PROPERTY
E
SciTegic.value.DoubleValue
316.750

@<SCITEGIC>MOL_PROPERTY
-TS
SciTegic.value.DoubleValue
183.834

@<SCITEGIC>MOL_PROPERTY
U+W
SciTegic.value.DoubleValue
190.662

@<SCITEGIC>MOL_PROPERTY
U
SciTegic.value.DoubleValue
264.527

@<SCITEGIC>MOL_PROPERTY
W
SciTegic.value.DoubleValue
-73.866

@<SCITEGIC>MOL_PROPERTY
W(PB)
SciTegic.value.DoubleValue
-79.784

@<SCITEGIC>MOL_PROPERTY
W(SA)
SciTegic.value.DoubleValue
5.918

@<SCITEGIC>MOL_PROPERTY
Valence
SciTegic.value.DoubleValue
153.094

@<SCITEGIC>MOL_PROPERTY
Coulomb
SciTegic.value.DoubleValue
137.154

@<SCITEGIC>MOL_PROPERTY
VdW
SciTegic.value.DoubleValue
-25.720

@<SCITEGIC>MOL_PROPERTY
VdW6
SciTegic.value.DoubleValue
-185.867

@<SCITEGIC>MOL_PROPERTY
VdW12
SciTegic.value.DoubleValue
160.147

@<SCITEGIC>MOL_PROPERTY
Bond
SciTegic.value.DoubleValue
5.078

@<SCITEGIC>MOL_PROPERTY
Angle
SciTegic.value.DoubleValue
14.986

@<SCITEGIC>MOL_PROPERTY
Pdih
SciTegic.value.DoubleValue
132.929

@<SCITEGIC>MOL_PROPERTY
Idih
SciTegic.value.DoubleValue
0.100

@<SCITEGIC>MOL_PROPERTY
Tether
SciTegic.value.DoubleValue
0.000

@<TRIPOS>MOLECULE
CD_guest-s19_fast_vm2_rndm.mol2 : feprocess host+ligand conformer 83
         143         148           2
SMALL
USER_CHARGES
 
@<TRIPOS>ATOM
       1    C1      16.099728   15.023735   20.732938 C.3        1 MOL1         0.2972
       2    H1      15.050408   14.914882   20.433083 H          1 MOL1         0.0751
       3    O1      16.452783   16.412094   20.923793 O.3        1 MOL1        -0.3740
       4    C2      16.399176   14.206825   22.013506 C.3        1 MOL1         0.1003
       5    H2      16.274026   13.146625   21.758392 H          1 MOL1         0.0783
       6    O2      15.474789   14.533759   23.061423 O.3        1 MOL1        -0.5519
       7    H3      15.746135   15.418715   23.410124 H          1 MOL1         0.3769
       8    C3      17.877425   14.419577   22.431443 C.3        1 MOL1         0.1053
       9    H4      18.011756   15.476959   22.692258 H          1 MOL1         0.0783
      10    O3      18.194169   13.603532   23.564156 O.3        1 MOL1        -0.5519
      11    H5      18.873794   14.113673   24.079381 H          1 MOL1         0.3769
      12    C4      18.842035   14.077591   21.260306 C.3        1 MOL1         0.1018
      13    H6      18.891233   12.983473   21.188174 H          1 MOL1         0.0783
      14    C5      18.379658   14.674158   19.891267 C.3        1 MOL1         0.1043
      15    H7      18.602305   15.748584   19.892034 H          1 MOL1         0.0783
      16    O4      16.953292   14.489396   19.705225 O.3        1 MOL1        -0.3740
      17    C6      19.068440   14.055154   18.649780 C.3        1 MOL1         0.0138
      18    H8      20.081421   14.461717   18.560921 H          1 MOL1         0.0794
      19    H9      18.521837   14.378714   17.753844 H          1 MOL1         0.0794
      20    O5      19.113678   12.623418   18.707467 O.3        1 MOL1        -0.5486
      21    H10     19.535364   12.306335   17.879411 H          1 MOL1         0.3769
      22    C7      15.041167   20.208385   21.727201 C.3        1 MOL1         0.2972
      23    H11     14.456385   21.104452   21.970830 H          1 MOL1         0.0751
      24    O6      16.345850   20.542759   21.219232 O.3        1 MOL1        -0.3740
      25    C8      15.224738   19.329496   22.986098 C.3        1 MOL1         0.1003
      26    H12     14.224402   19.022359   23.317845 H          1 MOL1         0.0783
      27    O7      15.866600   20.064800   24.041429 O.3        1 MOL1        -0.5519
      28    H13     15.926631   21.004402   23.742977 H          1 MOL1         0.3769
      29    C9      16.033267   18.055536   22.646685 C.3        1 MOL1         0.1053
      30    H14     17.054637   18.357891   22.386727 H          1 MOL1         0.0783
      31    O8      16.061766   17.219536   23.805541 O.3        1 MOL1        -0.5519
      32    H15     16.342100   17.819050   24.533330 H          1 MOL1         0.3769
      33    C10     15.432135   17.298894   21.430485 C.3        1 MOL1         0.1018
      34    H16     14.539418   16.754597   21.763450 H          1 MOL1         0.0783
      35    C11     15.068933   18.250590   20.253952 C.3        1 MOL1         0.1043
      36    H17     16.007542   18.571954   19.783973 H          1 MOL1         0.0783
      37    O9      14.358213   19.419687   20.732005 O.3        1 MOL1        -0.3740
      38    C12     14.214447   17.578374   19.151636 C.3        1 MOL1         0.0138
      39    H18     14.810416   16.788379   18.674821 H          1 MOL1         0.0794
      40    H19     13.996202   18.327174   18.378680 H          1 MOL1         0.0794
      41    O10     12.989436   17.032482   19.659582 O.3        1 MOL1        -0.5486
      42    H20     13.206482   16.290896   20.260838 H          1 MOL1         0.3769
      43    C13     18.625970   23.977316   20.571468 C.3        1 MOL1         0.2972
      44    H21     18.996607   24.957620   20.245042 H          1 MOL1         0.0751
      45    O11     19.682279   23.157407   21.105732 O.3        1 MOL1        -0.3740
      46    C14     17.525082   24.120154   21.656249 C.3        1 MOL1         0.1003
      47    H22     16.688516   24.663629   21.198017 H          1 MOL1         0.0783
      48    O12     17.989958   24.862905   22.793439 O.3        1 MOL1        -0.5519
      49    H23     18.809946   24.415811   23.124603 H          1 MOL1         0.3769
      50    C15     17.004990   22.725249   22.087861 C.3        1 MOL1         0.1053
      51    H24     17.828072   22.180469   22.571704 H          1 MOL1         0.0783
      52    O13     15.925660   22.894558   23.013331 O.3        1 MOL1        -0.5519
      53    H25     16.209165   23.632299   23.599931 H          1 MOL1         0.3769
      54    C16     16.548661   21.915112   20.844096 C.3        1 MOL1         0.1018
      55    H26     15.628654   22.360318   20.443706 H          1 MOL1         0.0783
      56    C17     17.633293   21.905734   19.734112 C.3        1 MOL1         0.1043
      57    H27     18.495741   21.333426   20.100279 H          1 MOL1         0.0783
      58    O14     18.044853   23.266934   19.454626 O.3        1 MOL1        -0.3740
      59    C18     17.177413   21.230175   18.416018 C.3        1 MOL1         0.0138
      60    H28     17.266917   20.142575   18.537434 H          1 MOL1         0.0794
      61    H29     17.869626   21.521737   17.615071 H          1 MOL1         0.0794
      62    O15     15.831393   21.562234   18.053060 O.3        1 MOL1        -0.5486
      63    H30     15.238898   21.123190   18.702076 H          1 MOL1         0.3769
      64    C19     23.627523   22.906531   22.086604 C.3        1 MOL1         0.2972
      65    H31     24.688950   23.014846   22.344727 H          1 MOL1         0.0751
      66    O16     23.273745   21.535677   21.821856 O.3        1 MOL1        -0.3740
      67    C20     22.742124   23.422024   23.244758 C.3        1 MOL1         0.1003
      68    H32     22.928128   24.498718   23.351277 H          1 MOL1         0.0783
      69    O17     23.067872   22.760799   24.477662 O.3        1 MOL1        -0.5519
      70    H33     23.565952   21.938768   24.242692 H          1 MOL1         0.3769
      71    C21     21.249231   23.224002   22.903798 C.3        1 MOL1         0.1053
      72    H34     21.050676   22.145138   22.878469 H          1 MOL1         0.0783
      73    O18     20.450767   23.829102   23.924711 O.3        1 MOL1        -0.5519
      74    H35     20.857809   23.529408   24.768619 H          1 MOL1         0.3769
      75    C22     20.891595   23.819461   21.516538 C.3        1 MOL1         0.1018
      76    H36     20.755195   24.903613   21.624958 H          1 MOL1         0.0783
      77    C23     21.948512   23.513533   20.413000 C.3        1 MOL1         0.1043
      78    H37     21.810160   22.469050   20.105841 H          1 MOL1         0.0783
      79    O19     23.302015   23.677339   20.912376 O.3        1 MOL1        -0.3740
      80    C24     21.783735   24.381373   19.142808 C.3        1 MOL1         0.0138
      81    H38     20.868784   24.067072   18.622483 H          1 MOL1         0.0794
      82    H39     22.627360   24.180285   18.468886 H          1 MOL1         0.0794
      83    O20     21.712626   25.779337   19.449520 O.3        1 MOL1        -0.5486
      84    H40     21.685707   26.270051   18.599116 H          1 MOL1         0.3769
      85    C25     24.993950   17.775732   21.429149 C.3        1 MOL1         0.2972
      86    H41     25.678845   16.936606   21.253280 H          1 MOL1         0.0751
      87    O21     23.648517   17.328486   21.684107 O.3        1 MOL1        -0.3740
      88    C26     25.460585   18.588668   22.662262 C.3        1 MOL1         0.1003
      89    H42     26.461973   18.979864   22.440300 H          1 MOL1         0.0783
      90    O22     25.529227   17.756355   23.830169 O.3        1 MOL1        -0.5519
      91    H43     24.795731   17.093678   23.760481 H          1 MOL1         0.3769
      92    C27     24.522019   19.792242   22.907983 C.3        1 MOL1         0.1053
      93    H44     23.532587   19.408623   23.194198 H          1 MOL1         0.0783
      94    O23     25.053519   20.599897   23.962784 O.3        1 MOL1        -0.5519
      95    H45     25.337951   19.957602   24.651735 H          1 MOL1         0.3769
      96    C28     24.367757   20.629704   21.615238 C.3        1 MOL1         0.1018
      97    H46     25.310084   21.158542   21.420806 H          1 MOL1         0.0783
      98    C29     24.014425   19.753108   20.381573 C.3        1 MOL1         0.1043
      99    H47     23.008020   19.343800   20.526974 H          1 MOL1         0.0783
     100    O24     24.962193   18.658831   20.284248 O.3        1 MOL1        -0.3740
     101    C30     23.982185   20.524610   19.036292 C.3        1 MOL1         0.0138
     102    H48     22.966224   20.911872   18.885906 H          1 MOL1         0.0794
     103    H49     24.176262   19.816096   18.220002 H          1 MOL1         0.0794
     104    O25     24.916658   21.609644   18.981252 O.3        1 MOL1        -0.5486
     105    H50     24.570385   22.320247   19.568239 H          1 MOL1         0.3769
     106    C31     21.291573   13.863590   21.248112 C.3        1 MOL1         0.2972
     107    H51     21.018906   12.826304   21.016082 H          1 MOL1         0.0751
     108    O26     20.128122   14.638684   21.613493 O.3        1 MOL1        -0.3740
     109    C32     22.292172   13.889322   22.436956 C.3        1 MOL1         0.1003
     110    H52     23.156719   13.280686   22.143070 H          1 MOL1         0.0783
     111    O27     21.706668   13.316559   23.617179 O.3        1 MOL1        -0.5519
     112    H53     21.086960   13.991342   24.001038 H          1 MOL1         0.3769
     113    C33     22.795444   15.331314   22.698358 C.3        1 MOL1         0.1053
     114    H54     21.934009   15.947605   22.972574 H          1 MOL1         0.0783
     115    O28     23.772384   15.352718   23.747430 O.3        1 MOL1        -0.5519
     116    H55     23.256155   15.254599   24.590052 H          1 MOL1         0.3769
     117    C34     23.369948   15.945183   21.405285 C.3        1 MOL1         0.1018
     118    H56     24.269330   15.388174   21.111663 H          1 MOL1         0.0783
     119    C35     22.311395   15.870708   20.275591 C.3        1 MOL1         0.1043
     120    H57     21.433946   16.450923   20.586882 H          1 MOL1         0.0783
     121    O29     21.932381   14.483657   20.106865 O.3        1 MOL1        -0.3740
     122    C36     22.770157   16.439604   18.909224 C.3        1 MOL1         0.0138
     123    H58     22.587940   17.522211   18.907408 H          1 MOL1         0.0794
     124    H59     22.139544   16.007541   18.121124 H          1 MOL1         0.0794
     125    O30     24.151696   16.188647   18.628675 O.3        1 MOL1        -0.5486
     126    H60     24.662367   16.906151   19.068423 H          1 MOL1         0.3769
     127    C1      20.842712   16.115414   25.245217 C.2        1 MOL1         0.6173
     128    O1      20.040645   15.277858   24.871784 O.co2      1 MOL1        -0.6755
     129    O2      21.844989   15.822208   25.868534 O.co2      1 MOL1        -0.6755
     130    C2      20.745754   17.510822   24.731302 C.2        1 MOL1        -0.1504
     131    H1      21.557661   18.176173   25.014969 H          1 MOL1         0.0814
     132    C3      19.762120   17.948165   23.912229 C.2        1 MOL1        -0.1394
     133    H2      18.955136   17.283789   23.611563 H          1 MOL1         0.0817
     134    C4      19.723900   19.338107   23.308756 C.3        1 MOL1        -0.1849
     135    H3      20.268723   20.037785   23.956241 H          1 MOL1         0.0736
     136    H4      18.691582   19.707296   23.261474 H          1 MOL1         0.0736
     137    C5      20.355159   19.358672   21.898937 C.3        1 MOL1        -0.1866
     138    H5      20.453354   20.395867   21.554532 H          1 MOL1         0.0738
     139    H6      21.369433   18.946710   21.963527 H          1 MOL1         0.0738
     140    C6      19.538833   18.560453   20.860305 C.3        1 MOL1        -0.2879
     141    H7      18.538803   18.990181   20.733109 H          1 MOL1         0.0750
     142    H8      20.038634   18.570111   19.883962 H          1 MOL1         0.0750
     143    H9      19.420286   17.516125   21.173999 H          1 MOL1         0.0750
@<TRIPOS>BOND
    1     1     2    1
    2     1     3    1
    3     1     4    1
    4     4     5    1
    5     4     6    1
    6     6     7    1
    7     4     8    1
    8     8     9    1
    9     8    10    1
   10    10    11    1
   11     8    12    1
   12    12    13    1
   13    12    14    1
   14    14    15    1
   15     1    16    1
   16    14    16    1
   17    14    17    1
   18    17    18    1
   19    17    19    1
   20    17    20    1
   21    20    21    1
   22    22    23    1
   23    22    24    1
   24    22    25    1
   25    25    26    1
   26    25    27    1
   27    27    28    1
   28    25    29    1
   29    29    30    1
   30    29    31    1
   31    31    32    1
   32     3    33    1
   33    29    33    1
   34    33    34    1
   35    33    35    1
   36    35    36    1
   37    22    37    1
   38    35    37    1
   39    35    38    1
   40    38    39    1
   41    38    40    1
   42    38    41    1
   43    41    42    1
   44    43    44    1
   45    43    45    1
   46    43    46    1
   47    46    47    1
   48    46    48    1
   49    48    49    1
   50    46    50    1
   51    50    51    1
   52    50    52    1
   53    52    53    1
   54    24    54    1
   55    50    54    1
   56    54    55    1
   57    54    56    1
   58    56    57    1
   59    43    58    1
   60    56    58    1
   61    56    59    1
   62    59    60    1
   63    59    61    1
   64    59    62    1
   65    62    63    1
   66    64    65    1
   67    64    66    1
   68    64    67    1
   69    67    68    1
   70    67    69    1
   71    69    70    1
   72    67    71    1
   73    71    72    1
   74    71    73    1
   75    73    74    1
   76    45    75    1
   77    71    75    1
   78    75    76    1
   79    75    77    1
   80    77    78    1
   81    64    79    1
   82    77    79    1
   83    77    80    1
   84    80    81    1
   85    80    82    1
   86    80    83    1
   87    83    84    1
   88    85    86    1
   89    85    87    1
   90    85    88    1
   91    88    89    1
   92    88    90    1
   93    90    91    1
   94    88    92    1
   95    92    93    1
   96    92    94    1
   97    94    95    1
   98    66    96    1
   99    92    96    1
  100    96    97    1
  101    96    98    1
  102    98    99    1
  103    85   100    1
  104    98   100    1
  105    98   101    1
  106   101   102    1
  107   101   103    1
  108   101   104    1
  109   104   105    1
  110   106   107    1
  111    12   108    1
  112   106   108    1
  113   106   109    1
  114   109   110    1
  115   109   111    1
  116   111   112    1
  117   109   113    1
  118   113   114    1
  119   113   115    1
  120   115   116    1
  121    87   117    1
  122   113   117    1
  123   117   118    1
  124   117   119    1
  125   119   120    1
  126   106   121    1
  127   119   121    1
  128   119   122    1
  129   122   123    1
  130   122   124    1
  131   122   125    1
  132   125   126    1
  133   127   128    1
  134   127   129    2
  135   127   130    1
  136   130   131    1
  137   130   132    2
  138   132   133    1
  139   132   134    1
  140   134   135    1
  141   134   136    1
  142   134   137    1
  143   137   138    1
  144   137   139    1
  145   137   140    1
  146   140   141    1
  147   140   142    1
  148   140   143    1
@<TRIPOS>SUBSTRUCTURE
       1 MOL1            1 RESIDUE      1      MOL     
       2 MOL1          143 RESIDUE      1      MOL     
@<SCITEGIC>MOL_PROPERTY
feprocess Rank
SciTegic.value.IntegerValue
83

@<SCITEGIC>MOL_PROPERTY
Conf_Id
SciTegic.value.IntegerValue
947

@<SCITEGIC>MOL_PROPERTY
Probability
SciTegic.value.DoubleValue
0.00

@<SCITEGIC>MOL_PROPERTY
G
SciTegic.value.DoubleValue
500.635

@<SCITEGIC>MOL_PROPERTY
E
SciTegic.value.DoubleValue
316.620

@<SCITEGIC>MOL_PROPERTY
-TS
SciTegic.value.DoubleValue
184.015

@<SCITEGIC>MOL_PROPERTY
U+W
SciTegic.value.DoubleValue
190.532

@<SCITEGIC>MOL_PROPERTY
U
SciTegic.value.DoubleValue
267.756

@<SCITEGIC>MOL_PROPERTY
W
SciTegic.value.DoubleValue
-77.224

@<SCITEGIC>MOL_PROPERTY
W(PB)
SciTegic.value.DoubleValue
-83.277

@<SCITEGIC>MOL_PROPERTY
W(SA)
SciTegic.value.DoubleValue
6.052

@<SCITEGIC>MOL_PROPERTY
Valence
SciTegic.value.DoubleValue
151.219

@<SCITEGIC>MOL_PROPERTY
Coulomb
SciTegic.value.DoubleValue
139.547

@<SCITEGIC>MOL_PROPERTY
VdW
SciTegic.value.DoubleValue
-23.010

@<SCITEGIC>MOL_PROPERTY
VdW6
SciTegic.value.DoubleValue
-181.434

@<SCITEGIC>MOL_PROPERTY
VdW12
SciTegic.value.DoubleValue
158.424

@<SCITEGIC>MOL_PROPERTY
Bond
SciTegic.value.DoubleValue
5.061

@<SCITEGIC>MOL_PROPERTY
Angle
SciTegic.value.DoubleValue
14.700

@<SCITEGIC>MOL_PROPERTY
Pdih
SciTegic.value.DoubleValue
131.364

@<SCITEGIC>MOL_PROPERTY
Idih
SciTegic.value.DoubleValue
0.095

@<SCITEGIC>MOL_PROPERTY
Tether
SciTegic.value.DoubleValue
0.000

@<TRIPOS>MOLECULE
CD_guest-s19_fast_vm2_rndm.mol2 : feprocess host+ligand conformer 84
         143         148           2
SMALL
USER_CHARGES
 
@<TRIPOS>ATOM
       1    C1      16.342366   15.365729   20.144669 C.3        1 MOL1         0.2972
       2    H1      15.356993   15.256481   19.673943 H          1 MOL1         0.0751
       3    O1      16.560329   16.721128   20.592090 O.3        1 MOL1        -0.3740
       4    C2      16.513852   14.371726   21.329080 C.3        1 MOL1         0.1003
       5    H2      16.443924   13.360917   20.906522 H          1 MOL1         0.0783
       6    O2      15.490190   14.519521   22.323601 O.3        1 MOL1        -0.5519
       7    H3      15.618781   15.411847   22.733394 H          1 MOL1         0.3769
       8    C3      17.918369   14.519034   21.964223 C.3        1 MOL1         0.1053
       9    H4      17.994373   15.517702   22.416549 H          1 MOL1         0.0783
      10    O3      18.099699   13.513406   22.966519 O.3        1 MOL1        -0.5519
      11    H5      17.263672   13.510595   23.483588 H          1 MOL1         0.3769
      12    C4      19.018418   14.386664   20.883707 C.3        1 MOL1         0.1018
      13    H6      19.049833   13.340211   20.553056 H          1 MOL1         0.0783
      14    C5      18.740565   15.292480   19.653983 C.3        1 MOL1         0.1043
      15    H7      18.834711   16.333896   19.973589 H          1 MOL1         0.0783
      16    O4      17.385649   15.060140   19.188909 O.3        1 MOL1        -0.3740
      17    C6      19.725115   15.104537   18.471043 C.3        1 MOL1         0.0138
      18    H8      20.583995   15.769547   18.628246 H          1 MOL1         0.0794
      19    H9      19.230262   15.436752   17.548764 H          1 MOL1         0.0794
      20    O5      20.187676   13.756732   18.325110 O.3        1 MOL1        -0.5486
      21    H10     20.897667   13.625374   18.995480 H          1 MOL1         0.3769
      22    C7      14.829987   20.274782   21.755681 C.3        1 MOL1         0.2972
      23    H11     14.181878   21.099987   22.077700 H          1 MOL1         0.0751
      24    O6      16.125658   20.747345   21.336519 O.3        1 MOL1        -0.3740
      25    C8      15.011804   19.250625   22.904208 C.3        1 MOL1         0.1003
      26    H12     14.018762   18.842893   23.134041 H          1 MOL1         0.0783
      27    O7      15.551997   19.862620   24.086473 O.3        1 MOL1        -0.5519
      28    H13     15.602903   20.834094   23.914237 H          1 MOL1         0.3769
      29    C9      15.916659   18.081864   22.455601 C.3        1 MOL1         0.1053
      30    H14     16.925912   18.480471   22.296432 H          1 MOL1         0.0783
      31    O8      15.945889   17.100127   23.495920 O.3        1 MOL1        -0.5519
      32    H15     16.114489   17.619092   24.314717 H          1 MOL1         0.3769
      33    C10     15.434829   17.451371   21.122967 C.3        1 MOL1         0.1018
      34    H16     14.576664   16.798783   21.329064 H          1 MOL1         0.0783
      35    C11     15.044210   18.517241   20.057290 C.3        1 MOL1         0.1043
      36    H17     15.969279   18.958319   19.666616 H          1 MOL1         0.0783
      37    O9      14.235254   19.569453   20.645729 O.3        1 MOL1        -0.3740
      38    C12     14.280364   17.927629   18.847734 C.3        1 MOL1         0.0138
      39    H18     14.981150   17.324450   18.254842 H          1 MOL1         0.0794
      40    H19     13.942439   18.755425   18.209983 H          1 MOL1         0.0794
      41    O10     13.165939   17.121538   19.250443 O.3        1 MOL1        -0.5486
      42    H20     12.686763   16.847977   18.437907 H          1 MOL1         0.3769
      43    C13     18.439500   24.196969   21.389409 C.3        1 MOL1         0.2972
      44    H21     18.822600   25.222068   21.307114 H          1 MOL1         0.0751
      45    O11     19.484975   23.261038   21.714610 O.3        1 MOL1        -0.3740
      46    C14     17.381944   24.122861   22.516042 C.3        1 MOL1         0.1003
      47    H22     16.569146   24.812076   22.252317 H          1 MOL1         0.0783
      48    O12     17.959859   24.525635   23.768128 O.3        1 MOL1        -0.5519
      49    H23     18.909973   24.250965   23.745029 H          1 MOL1         0.3769
      50    C15     16.785108   22.699318   22.630368 C.3        1 MOL1         0.1053
      51    H24     17.573798   22.029303   22.998051 H          1 MOL1         0.0783
      52    O13     15.700461   22.732022   23.563491 O.3        1 MOL1        -0.5519
      53    H25     16.024399   23.291936   24.305593 H          1 MOL1         0.3769
      54    C16     16.304297   22.174251   21.250392 C.3        1 MOL1         0.1018
      55    H26     15.371608   22.682322   20.973998 H          1 MOL1         0.0783
      56    C17     17.360973   22.405018   20.135976 C.3        1 MOL1         0.1043
      57    H27     18.211078   21.743389   20.340596 H          1 MOL1         0.0783
      58    O14     17.819597   23.779861   20.155016 O.3        1 MOL1        -0.3740
      59    C18     16.854877   22.063318   18.712215 C.3        1 MOL1         0.0138
      60    H28     16.826091   20.970924   18.605042 H          1 MOL1         0.0794
      61    H29     17.583206   22.439958   17.982010 H          1 MOL1         0.0794
      62    O15     15.558529   22.607479   18.438211 O.3        1 MOL1        -0.5486
      63    H30     14.905297   22.075642   18.942112 H          1 MOL1         0.3769
      64    C19     23.624129   22.786707   21.424218 C.3        1 MOL1         0.2972
      65    H31     24.694709   22.961480   21.256621 H          1 MOL1         0.0751
      66    O16     23.362170   21.420451   21.794673 O.3        1 MOL1        -0.3740
      67    C20     23.121309   23.692417   22.575934 C.3        1 MOL1         0.1003
      68    H32     23.308254   24.734148   22.284514 H          1 MOL1         0.0783
      69    O17     23.836865   23.402517   23.787305 O.3        1 MOL1        -0.5519
      70    H33     24.142266   22.465355   23.718543 H          1 MOL1         0.3769
      71    C21     21.598812   23.521213   22.790295 C.3        1 MOL1         0.1053
      72    H34     21.415923   22.504433   23.165143 H          1 MOL1         0.0783
      73    O18     21.136831   24.481313   23.747029 O.3        1 MOL1        -0.5519
      74    H35     21.780520   24.430922   24.488352 H          1 MOL1         0.3769
      75    C22     20.832471   23.694695   21.457270 C.3        1 MOL1         0.1018
      76    H36     20.879343   24.751918   21.164819 H          1 MOL1         0.0783
      77    C23     21.438412   22.815433   20.327123 C.3        1 MOL1         0.1043
      78    H37     21.283391   21.764241   20.597288 H          1 MOL1         0.0783
      79    O19     22.862005   23.078845   20.232038 O.3        1 MOL1        -0.3740
      80    C24     20.809064   23.015769   18.924842 C.3        1 MOL1         0.0138
      81    H38     19.937643   22.355638   18.836296 H          1 MOL1         0.0794
      82    H39     21.532796   22.688339   18.166490 H          1 MOL1         0.0794
      83    O20     20.411445   24.367354   18.672140 O.3        1 MOL1        -0.5486
      84    H40     19.508211   24.470210   19.050732 H          1 MOL1         0.3769
      85    C25     25.022614   17.578476   21.550518 C.3        1 MOL1         0.2972
      86    H41     25.714252   16.759095   21.316839 H          1 MOL1         0.0751
      87    O21     23.797296   17.066365   22.116789 O.3        1 MOL1        -0.3740
      88    C26     25.694407   18.555704   22.560158 C.3        1 MOL1         0.1003
      89    H42     26.666618   18.828242   22.129781 H          1 MOL1         0.0783
      90    O22     25.906405   17.924984   23.832889 O.3        1 MOL1        -0.5519
      91    H43     25.010013   17.813450   24.248999 H          1 MOL1         0.3769
      92    C27     24.889821   19.863843   22.767590 C.3        1 MOL1         0.1053
      93    H44     24.021129   19.629122   23.388168 H          1 MOL1         0.0783
      94    O23     25.699817   20.825983   23.451549 O.3        1 MOL1        -0.5519
      95    H45     26.079517   20.345969   24.220484 H          1 MOL1         0.3769
      96    C28     24.377472   20.465005   21.438086 C.3        1 MOL1         0.1018
      97    H46     25.222945   20.930099   20.914164 H          1 MOL1         0.0783
      98    C29     23.740527   19.388839   20.522198 C.3        1 MOL1         0.1043
      99    H47     22.840964   18.999689   21.010710 H          1 MOL1         0.0783
     100    O24     24.700299   18.322292   20.354254 O.3        1 MOL1        -0.3740
     101    C30     23.305573   19.888685   19.120737 C.3        1 MOL1         0.0138
     102    H48     22.276790   20.262612   19.189746 H          1 MOL1         0.0794
     103    H49     23.284246   19.030723   18.435826 H          1 MOL1         0.0794
     104    O25     24.154350   20.915448   18.595237 O.3        1 MOL1        -0.5486
     105    H50     23.897779   21.755105   19.042413 H          1 MOL1         0.3769
     106    C31     21.272023   13.784642   21.574986 C.3        1 MOL1         0.2972
     107    H51     20.847718   12.780679   21.446456 H          1 MOL1         0.0751
     108    O26     20.257945   14.803907   21.487876 O.3        1 MOL1        -0.3740
     109    C32     21.951742   13.877923   22.957913 C.3        1 MOL1         0.1003
     110    H52     22.740963   13.116029   22.992169 H          1 MOL1         0.0783
     111    O27     20.983170   13.600201   23.983551 O.3        1 MOL1        -0.5519
     112    H53     20.104542   13.891986   23.638130 H          1 MOL1         0.3769
     113    C33     22.622069   15.260256   23.157101 C.3        1 MOL1         0.1053
     114    H54     21.824709   16.010300   23.246754 H          1 MOL1         0.0783
     115    O28     23.413738   15.238034   24.351334 O.3        1 MOL1        -0.5519
     116    H55     23.483834   16.179468   24.655525 H          1 MOL1         0.3769
     117    C34     23.532147   15.649583   21.957989 C.3        1 MOL1         0.1018
     118    H56     24.458615   15.066666   22.041695 H          1 MOL1         0.0783
     119    C35     22.857793   15.368517   20.574436 C.3        1 MOL1         0.1043
     120    H57     22.076644   16.123588   20.417519 H          1 MOL1         0.0783
     121    O29     22.258584   14.046969   20.562728 O.3        1 MOL1        -0.3740
     122    C36     23.809279   15.406404   19.351563 C.3        1 MOL1         0.0138
     123    H58     23.995408   16.446479   19.065463 H          1 MOL1         0.0794
     124    H59     23.295474   14.940073   18.500070 H          1 MOL1         0.0794
     125    O30     25.048483   14.731762   19.603290 O.3        1 MOL1        -0.5486
     126    H60     25.568480   14.745056   18.770616 H          1 MOL1         0.3769
     127    C1      22.148796   18.283661   25.209699 C.2        1 MOL1         0.6173
     128    O1      23.314084   17.931264   25.134902 O.co2      1 MOL1        -0.6755
     129    O2      21.504923   18.259116   26.240919 O.co2      1 MOL1        -0.6755
     130    C2      21.506359   18.753774   23.953606 C.2        1 MOL1        -0.1504
     131    H1      22.141630   18.749817   23.079454 H          1 MOL1         0.0814
     132    C3      20.226478   19.167776   23.831120 C.2        1 MOL1        -0.1394
     133    H2      19.552593   19.181531   24.687171 H          1 MOL1         0.0817
     134    C4      19.654969   19.661825   22.518221 C.3        1 MOL1        -0.1849
     135    H3      20.209074   20.552389   22.200644 H          1 MOL1         0.0736
     136    H4      18.615179   19.978997   22.662478 H          1 MOL1         0.0736
     137    C5      19.720403   18.586520   21.410758 C.3        1 MOL1        -0.1866
     138    H5      20.744057   18.207858   21.307561 H          1 MOL1         0.0738
     139    H6      19.102075   17.729453   21.707122 H          1 MOL1         0.0738
     140    C6      19.248642   19.135270   20.049499 C.3        1 MOL1        -0.2879
     141    H7      18.189381   19.410315   20.094750 H          1 MOL1         0.0750
     142    H8      19.826434   20.020532   19.760957 H          1 MOL1         0.0750
     143    H9      19.368897   18.385773   19.258464 H          1 MOL1         0.0750
@<TRIPOS>BOND
    1     1     2    1
    2     1     3    1
    3     1     4    1
    4     4     5    1
    5     4     6    1
    6     6     7    1
    7     4     8    1
    8     8     9    1
    9     8    10    1
   10    10    11    1
   11     8    12    1
   12    12    13    1
   13    12    14    1
   14    14    15    1
   15     1    16    1
   16    14    16    1
   17    14    17    1
   18    17    18    1
   19    17    19    1
   20    17    20    1
   21    20    21    1
   22    22    23    1
   23    22    24    1
   24    22    25    1
   25    25    26    1
   26    25    27    1
   27    27    28    1
   28    25    29    1
   29    29    30    1
   30    29    31    1
   31    31    32    1
   32     3    33    1
   33    29    33    1
   34    33    34    1
   35    33    35    1
   36    35    36    1
   37    22    37    1
   38    35    37    1
   39    35    38    1
   40    38    39    1
   41    38    40    1
   42    38    41    1
   43    41    42    1
   44    43    44    1
   45    43    45    1
   46    43    46    1
   47    46    47    1
   48    46    48    1
   49    48    49    1
   50    46    50    1
   51    50    51    1
   52    50    52    1
   53    52    53    1
   54    24    54    1
   55    50    54    1
   56    54    55    1
   57    54    56    1
   58    56    57    1
   59    43    58    1
   60    56    58    1
   61    56    59    1
   62    59    60    1
   63    59    61    1
   64    59    62    1
   65    62    63    1
   66    64    65    1
   67    64    66    1
   68    64    67    1
   69    67    68    1
   70    67    69    1
   71    69    70    1
   72    67    71    1
   73    71    72    1
   74    71    73    1
   75    73    74    1
   76    45    75    1
   77    71    75    1
   78    75    76    1
   79    75    77    1
   80    77    78    1
   81    64    79    1
   82    77    79    1
   83    77    80    1
   84    80    81    1
   85    80    82    1
   86    80    83    1
   87    83    84    1
   88    85    86    1
   89    85    87    1
   90    85    88    1
   91    88    89    1
   92    88    90    1
   93    90    91    1
   94    88    92    1
   95    92    93    1
   96    92    94    1
   97    94    95    1
   98    66    96    1
   99    92    96    1
  100    96    97    1
  101    96    98    1
  102    98    99    1
  103    85   100    1
  104    98   100    1
  105    98   101    1
  106   101   102    1
  107   101   103    1
  108   101   104    1
  109   104   105    1
  110   106   107    1
  111    12   108    1
  112   106   108    1
  113   106   109    1
  114   109   110    1
  115   109   111    1
  116   111   112    1
  117   109   113    1
  118   113   114    1
  119   113   115    1
  120   115   116    1
  121    87   117    1
  122   113   117    1
  123   117   118    1
  124   117   119    1
  125   119   120    1
  126   106   121    1
  127   119   121    1
  128   119   122    1
  129   122   123    1
  130   122   124    1
  131   122   125    1
  132   125   126    1
  133   127   128    1
  134   127   129    2
  135   127   130    1
  136   130   131    1
  137   130   132    2
  138   132   133    1
  139   132   134    1
  140   134   135    1
  141   134   136    1
  142   134   137    1
  143   137   138    1
  144   137   139    1
  145   137   140    1
  146   140   141    1
  147   140   142    1
  148   140   143    1
@<TRIPOS>SUBSTRUCTURE
       1 MOL1            1 RESIDUE      1      MOL     
       2 MOL1          143 RESIDUE      1      MOL     
@<SCITEGIC>MOL_PROPERTY
feprocess Rank
SciTegic.value.IntegerValue
84

@<SCITEGIC>MOL_PROPERTY
Conf_Id
SciTegic.value.IntegerValue
661

@<SCITEGIC>MOL_PROPERTY
Probability
SciTegic.value.DoubleValue
0.00

@<SCITEGIC>MOL_PROPERTY
G
SciTegic.value.DoubleValue
500.645

@<SCITEGIC>MOL_PROPERTY
E
SciTegic.value.DoubleValue
317.299

@<SCITEGIC>MOL_PROPERTY
-TS
SciTegic.value.DoubleValue
183.346

@<SCITEGIC>MOL_PROPERTY
U+W
SciTegic.value.DoubleValue
191.211

@<SCITEGIC>MOL_PROPERTY
U
SciTegic.value.DoubleValue
275.744

@<SCITEGIC>MOL_PROPERTY
W
SciTegic.value.DoubleValue
-84.534

@<SCITEGIC>MOL_PROPERTY
W(PB)
SciTegic.value.DoubleValue
-90.548

@<SCITEGIC>MOL_PROPERTY
W(SA)
SciTegic.value.DoubleValue
6.014

@<SCITEGIC>MOL_PROPERTY
Valence
SciTegic.value.DoubleValue
151.249

@<SCITEGIC>MOL_PROPERTY
Coulomb
SciTegic.value.DoubleValue
149.454

@<SCITEGIC>MOL_PROPERTY
VdW
SciTegic.value.DoubleValue
-24.958

@<SCITEGIC>MOL_PROPERTY
VdW6
SciTegic.value.DoubleValue
-181.629

@<SCITEGIC>MOL_PROPERTY
VdW12
SciTegic.value.DoubleValue
156.671

@<SCITEGIC>MOL_PROPERTY
Bond
SciTegic.value.DoubleValue
4.990

@<SCITEGIC>MOL_PROPERTY
Angle
SciTegic.value.DoubleValue
14.662

@<SCITEGIC>MOL_PROPERTY
Pdih
SciTegic.value.DoubleValue
131.596

@<SCITEGIC>MOL_PROPERTY
Idih
SciTegic.value.DoubleValue
0.001

@<SCITEGIC>MOL_PROPERTY
Tether
SciTegic.value.DoubleValue
0.000

@<TRIPOS>MOLECULE
CD_guest-s19_fast_vm2_rndm.mol2 : feprocess host+ligand conformer 85
         143         148           2
SMALL
USER_CHARGES
 
@<TRIPOS>ATOM
       1    C1      16.173471   15.093877   21.545693 C.3        1 MOL1         0.2972
       2    H1      15.091383   14.922979   21.611616 H          1 MOL1         0.0751
       3    O1      16.495278   16.497461   21.546091 O.3        1 MOL1        -0.3740
       4    C2      16.883715   14.435352   22.752688 C.3        1 MOL1         0.1003
       5    H2      16.692691   13.355608   22.699270 H          1 MOL1         0.0783
       6    O2      16.367052   14.944329   23.992754 O.3        1 MOL1        -0.5519
       7    H3      15.983911   15.837459   23.803827 H          1 MOL1         0.3769
       8    C3      18.411362   14.653411   22.671023 C.3        1 MOL1         0.1053
       9    H4      18.611299   15.727250   22.787294 H          1 MOL1         0.0783
      10    O3      19.042922   13.927290   23.729403 O.3        1 MOL1        -0.5519
      11    H5      18.503683   14.129864   24.526855 H          1 MOL1         0.3769
      12    C4      18.967357   14.195852   21.298968 C.3        1 MOL1         0.1018
      13    H6      18.990165   13.098334   21.276880 H          1 MOL1         0.0783
      14    C5      18.125708   14.738906   20.108573 C.3        1 MOL1         0.1043
      15    H7      18.310601   15.818269   20.033519 H          1 MOL1         0.0783
      16    O4      16.708559   14.516678   20.336221 O.3        1 MOL1        -0.3740
      17    C6      18.510571   14.110764   18.748257 C.3        1 MOL1         0.0138
      18    H8      19.505828   14.479178   18.464493 H          1 MOL1         0.0794
      19    H9      17.802378   14.462388   17.986088 H          1 MOL1         0.0794
      20    O5      18.519348   12.678423   18.799321 O.3        1 MOL1        -0.5486
      21    H10     18.719327   12.349618   17.895947 H          1 MOL1         0.3769
      22    C7      14.720873   20.245933   21.186396 C.3        1 MOL1         0.2972
      23    H11     14.025426   21.075293   21.005385 H          1 MOL1         0.0751
      24    O6      16.041438   20.713942   21.519138 O.3        1 MOL1        -0.3740
      25    C8      14.221143   19.385243   22.373245 C.3        1 MOL1         0.1003
      26    H12     13.236356   18.984434   22.099962 H          1 MOL1         0.0783
      27    O7      14.093315   20.181212   23.562386 O.3        1 MOL1        -0.5519
      28    H13     14.782032   20.890887   23.514796 H          1 MOL1         0.3769
      29    C9      15.172088   18.190049   22.618952 C.3        1 MOL1         0.1053
      30    H14     16.141472   18.580737   22.959074 H          1 MOL1         0.0783
      31    O8      14.612885   17.336427   23.621965 O.3        1 MOL1        -0.5519
      32    H15     14.302152   17.946706   24.328083 H          1 MOL1         0.3769
      33    C10     15.398003   17.396462   21.309846 C.3        1 MOL1         0.1018
      34    H16     14.471135   16.863635   21.060449 H          1 MOL1         0.0783
      35    C11     15.788402   18.320100   20.123341 C.3        1 MOL1         0.1043
      36    H17     16.778208   18.743827   20.330346 H          1 MOL1         0.0783
      37    O9      14.826166   19.401376   20.017349 O.3        1 MOL1        -0.3740
      38    C12     15.888277   17.591336   18.758022 C.3        1 MOL1         0.0138
      39    H18     16.887533   17.145504   18.674859 H          1 MOL1         0.0794
      40    H19     15.801117   18.335933   17.955660 H          1 MOL1         0.0794
      41    O10     14.902325   16.566085   18.591113 O.3        1 MOL1        -0.5486
      42    H20     15.227565   15.775328   19.078291 H          1 MOL1         0.3769
      43    C13     18.481776   24.102197   21.368880 C.3        1 MOL1         0.2972
      44    H21     18.817321   25.137712   21.231894 H          1 MOL1         0.0751
      45    O11     19.597703   23.241811   21.681547 O.3        1 MOL1        -0.3740
      46    C14     17.443548   24.058042   22.526982 C.3        1 MOL1         0.1003
      47    H22     16.667273   24.793797   22.280407 H          1 MOL1         0.0783
      48    O12     18.046519   24.415937   23.779306 O.3        1 MOL1        -0.5519
      49    H23     18.674877   23.680010   24.010823 H          1 MOL1         0.3769
      50    C15     16.756636   22.679846   22.668148 C.3        1 MOL1         0.1053
      51    H24     17.478935   21.987045   23.109706 H          1 MOL1         0.0783
      52    O13     15.628569   22.794409   23.541959 O.3        1 MOL1        -0.5519
      53    H25     15.959590   23.285136   24.326852 H          1 MOL1         0.3769
      54    C16     16.303757   22.111315   21.304024 C.3        1 MOL1         0.1018
      55    H26     15.410277   22.659568   20.977710 H          1 MOL1         0.0783
      56    C17     17.408183   22.232629   20.221597 C.3        1 MOL1         0.1043
      57    H27     18.249714   21.593413   20.515148 H          1 MOL1         0.0783
      58    O14     17.850556   23.612046   20.163219 O.3        1 MOL1        -0.3740
      59    C18     16.974489   21.773353   18.804490 C.3        1 MOL1         0.0138
      60    H28     17.149676   20.692484   18.723948 H          1 MOL1         0.0794
      61    H29     17.621251   22.257993   18.062118 H          1 MOL1         0.0794
      62    O15     15.601724   22.054471   18.510565 O.3        1 MOL1        -0.5486
      63    H30     15.077681   21.300706   18.864292 H          1 MOL1         0.3769
      64    C19     23.682229   22.813095   20.824312 C.3        1 MOL1         0.2972
      65    H31     24.724107   22.963673   20.516508 H          1 MOL1         0.0751
      66    O16     23.399859   21.413574   21.057461 O.3        1 MOL1        -0.3740
      67    C20     23.340160   23.665215   22.075776 C.3        1 MOL1         0.1003
      68    H32     23.435582   24.719320   21.785348 H          1 MOL1         0.0783
      69    O17     24.256194   23.407083   23.149992 O.3        1 MOL1        -0.5519
      70    H33     23.966844   22.556510   23.564680 H          1 MOL1         0.3769
      71    C21     21.863506   23.419298   22.481902 C.3        1 MOL1         0.1053
      72    H34     21.759588   22.359408   22.742595 H          1 MOL1         0.0783
      73    O18     21.498464   24.224723   23.606564 O.3        1 MOL1        -0.5519
      74    H35     20.812187   23.692417   24.084610 H          1 MOL1         0.3769
      75    C22     20.909998   23.715542   21.292691 C.3        1 MOL1         0.1018
      76    H36     20.913111   24.800384   21.125267 H          1 MOL1         0.0783
      77    C23     21.382381   22.986525   19.996576 C.3        1 MOL1         0.1043
      78    H37     21.242679   21.910157   20.144162 H          1 MOL1         0.0783
      79    O19     22.792136   23.253901   19.777317 O.3        1 MOL1        -0.3740
      80    C24     20.631497   23.359077   18.694611 C.3        1 MOL1         0.0138
      81    H38     19.755092   22.707921   18.602145 H          1 MOL1         0.0794
      82    H39     21.282596   23.130680   17.840258 H          1 MOL1         0.0794
      83    O20     20.225366   24.730716   18.646629 O.3        1 MOL1        -0.5486
      84    H40     19.321325   24.763521   19.033203 H          1 MOL1         0.3769
      85    C25     24.807957   17.712939   22.159116 C.3        1 MOL1         0.2972
      86    H41     25.373299   16.837205   22.501839 H          1 MOL1         0.0751
      87    O21     23.597705   17.332209   21.476550 O.3        1 MOL1        -0.3740
      88    C26     24.429194   18.611286   23.361768 C.3        1 MOL1         0.1003
      89    H42     25.365419   18.935925   23.833642 H          1 MOL1         0.0783
      90    O22     23.651891   17.869902   24.317015 O.3        1 MOL1        -0.5519
      91    H43     23.722995   16.916653   24.072905 H          1 MOL1         0.3769
      92    C27     23.666399   19.874746   22.888648 C.3        1 MOL1         0.1053
      93    H44     22.683136   19.557849   22.521346 H          1 MOL1         0.0783
      94    O23     23.508984   20.780192   23.987801 O.3        1 MOL1        -0.5519
      95    H45     22.737791   20.452055   24.524187 H          1 MOL1         0.3769
      96    C28     24.391840   20.599733   21.720215 C.3        1 MOL1         0.1018
      97    H46     25.212786   21.198540   22.132971 H          1 MOL1         0.0783
      98    C29     24.939152   19.625167   20.639066 C.3        1 MOL1         0.1043
      99    H47     24.084731   19.258772   20.055097 H          1 MOL1         0.0783
     100    O24     25.608585   18.497638   21.253266 O.3        1 MOL1        -0.3740
     101    C30     25.918506   20.291091   19.641749 C.3        1 MOL1         0.0138
     102    H48     25.369195   21.038764   19.053857 H          1 MOL1         0.0794
     103    H49     26.270140   19.524558   18.938502 H          1 MOL1         0.0794
     104    O25     27.039246   20.904288   20.293503 O.3        1 MOL1        -0.5486
     105    H50     26.711213   21.648246   20.839616 H          1 MOL1         0.3769
     106    C31     21.355951   13.896302   20.773765 C.3        1 MOL1         0.2972
     107    H51     20.988637   12.908943   20.465790 H          1 MOL1         0.0751
     108    O26     20.282444   14.768616   21.178826 O.3        1 MOL1        -0.3740
     109    C32     22.348869   13.781927   21.959487 C.3        1 MOL1         0.1003
     110    H52     23.209447   13.198054   21.607785 H          1 MOL1         0.0783
     111    O27     21.757099   13.106424   23.079545 O.3        1 MOL1        -0.5519
     112    H53     20.870399   13.519279   23.240180 H          1 MOL1         0.3769
     113    C33     22.864666   15.183452   22.375849 C.3        1 MOL1         0.1053
     114    H54     22.015567   15.764434   22.762810 H          1 MOL1         0.0783
     115    O28     23.851439   15.027805   23.401530 O.3        1 MOL1        -0.5519
     116    H55     23.497104   14.318427   23.985045 H          1 MOL1         0.3769
     117    C34     23.450873   15.938062   21.150124 C.3        1 MOL1         0.1018
     118    H56     24.412446   15.487482   20.872962 H          1 MOL1         0.0783
     119    C35     22.491832   15.890618   19.930946 C.3        1 MOL1         0.1043
     120    H57     21.616124   16.500132   20.175247 H          1 MOL1         0.0783
     121    O29     22.064364   14.528700   19.685030 O.3        1 MOL1        -0.3740
     122    C36     23.094052   16.477548   18.630331 C.3        1 MOL1         0.0138
     123    H58     23.069025   17.573069   18.700988 H          1 MOL1         0.0794
     124    H59     22.448047   16.195492   17.788453 H          1 MOL1         0.0794
     125    O30     24.437447   16.040043   18.391577 O.3        1 MOL1        -0.5486
     126    H60     25.011123   16.484697   19.052528 H          1 MOL1         0.3769
     127    C1      20.136037   21.059786   24.415175 C.2        1 MOL1         0.6173
     128    O1      19.695894   22.190620   24.544694 O.co2      1 MOL1        -0.6755
     129    O2      20.941654   20.562208   25.179783 O.co2      1 MOL1        -0.6755
     130    C2      19.731131   20.302234   23.199094 C.2        1 MOL1        -0.1504
     131    H1      19.078661   20.824244   22.512573 H          1 MOL1         0.0814
     132    C3      20.132829   19.049020   22.893722 C.2        1 MOL1        -0.1394
     133    H2      20.794978   18.490921   23.555673 H          1 MOL1         0.0817
     134    C4      19.707828   18.344606   21.623492 C.3        1 MOL1        -0.1849
     135    H3      18.613452   18.335650   21.564188 H          1 MOL1         0.0736
     136    H4      20.028004   17.298410   21.661331 H          1 MOL1         0.0736
     137    C5      20.300099   19.024506   20.369602 C.3        1 MOL1        -0.1866
     138    H5      20.060870   20.093144   20.388894 H          1 MOL1         0.0738
     139    H6      21.395461   18.946206   20.395270 H          1 MOL1         0.0738
     140    C6      19.758871   18.423782   19.056586 C.3        1 MOL1        -0.2879
     141    H7      19.907263   17.338320   19.017891 H          1 MOL1         0.0750
     142    H8      20.269016   18.868024   18.192401 H          1 MOL1         0.0750
     143    H9      18.687905   18.626595   18.952164 H          1 MOL1         0.0750
@<TRIPOS>BOND
    1     1     2    1
    2     1     3    1
    3     1     4    1
    4     4     5    1
    5     4     6    1
    6     6     7    1
    7     4     8    1
    8     8     9    1
    9     8    10    1
   10    10    11    1
   11     8    12    1
   12    12    13    1
   13    12    14    1
   14    14    15    1
   15     1    16    1
   16    14    16    1
   17    14    17    1
   18    17    18    1
   19    17    19    1
   20    17    20    1
   21    20    21    1
   22    22    23    1
   23    22    24    1
   24    22    25    1
   25    25    26    1
   26    25    27    1
   27    27    28    1
   28    25    29    1
   29    29    30    1
   30    29    31    1
   31    31    32    1
   32     3    33    1
   33    29    33    1
   34    33    34    1
   35    33    35    1
   36    35    36    1
   37    22    37    1
   38    35    37    1
   39    35    38    1
   40    38    39    1
   41    38    40    1
   42    38    41    1
   43    41    42    1
   44    43    44    1
   45    43    45    1
   46    43    46    1
   47    46    47    1
   48    46    48    1
   49    48    49    1
   50    46    50    1
   51    50    51    1
   52    50    52    1
   53    52    53    1
   54    24    54    1
   55    50    54    1
   56    54    55    1
   57    54    56    1
   58    56    57    1
   59    43    58    1
   60    56    58    1
   61    56    59    1
   62    59    60    1
   63    59    61    1
   64    59    62    1
   65    62    63    1
   66    64    65    1
   67    64    66    1
   68    64    67    1
   69    67    68    1
   70    67    69    1
   71    69    70    1
   72    67    71    1
   73    71    72    1
   74    71    73    1
   75    73    74    1
   76    45    75    1
   77    71    75    1
   78    75    76    1
   79    75    77    1
   80    77    78    1
   81    64    79    1
   82    77    79    1
   83    77    80    1
   84    80    81    1
   85    80    82    1
   86    80    83    1
   87    83    84    1
   88    85    86    1
   89    85    87    1
   90    85    88    1
   91    88    89    1
   92    88    90    1
   93    90    91    1
   94    88    92    1
   95    92    93    1
   96    92    94    1
   97    94    95    1
   98    66    96    1
   99    92    96    1
  100    96    97    1
  101    96    98    1
  102    98    99    1
  103    85   100    1
  104    98   100    1
  105    98   101    1
  106   101   102    1
  107   101   103    1
  108   101   104    1
  109   104   105    1
  110   106   107    1
  111    12   108    1
  112   106   108    1
  113   106   109    1
  114   109   110    1
  115   109   111    1
  116   111   112    1
  117   109   113    1
  118   113   114    1
  119   113   115    1
  120   115   116    1
  121    87   117    1
  122   113   117    1
  123   117   118    1
  124   117   119    1
  125   119   120    1
  126   106   121    1
  127   119   121    1
  128   119   122    1
  129   122   123    1
  130   122   124    1
  131   122   125    1
  132   125   126    1
  133   127   128    1
  134   127   129    2
  135   127   130    1
  136   130   131    1
  137   130   132    2
  138   132   133    1
  139   132   134    1
  140   134   135    1
  141   134   136    1
  142   134   137    1
  143   137   138    1
  144   137   139    1
  145   137   140    1
  146   140   141    1
  147   140   142    1
  148   140   143    1
@<TRIPOS>SUBSTRUCTURE
       1 MOL1            1 RESIDUE      1      MOL     
       2 MOL1          143 RESIDUE      1      MOL     
@<SCITEGIC>MOL_PROPERTY
feprocess Rank
SciTegic.value.IntegerValue
85

@<SCITEGIC>MOL_PROPERTY
Conf_Id
SciTegic.value.IntegerValue
477

@<SCITEGIC>MOL_PROPERTY
Probability
SciTegic.value.DoubleValue
0.00

@<SCITEGIC>MOL_PROPERTY
G
SciTegic.value.DoubleValue
500.770

@<SCITEGIC>MOL_PROPERTY
E
SciTegic.value.DoubleValue
317.036

@<SCITEGIC>MOL_PROPERTY
-TS
SciTegic.value.DoubleValue
183.734

@<SCITEGIC>MOL_PROPERTY
U+W
SciTegic.value.DoubleValue
190.948

@<SCITEGIC>MOL_PROPERTY
U
SciTegic.value.DoubleValue
266.757

@<SCITEGIC>MOL_PROPERTY
W
SciTegic.value.DoubleValue
-75.809

@<SCITEGIC>MOL_PROPERTY
W(PB)
SciTegic.value.DoubleValue
-81.770

@<SCITEGIC>MOL_PROPERTY
W(SA)
SciTegic.value.DoubleValue
5.961

@<SCITEGIC>MOL_PROPERTY
Valence
SciTegic.value.DoubleValue
152.651

@<SCITEGIC>MOL_PROPERTY
Coulomb
SciTegic.value.DoubleValue
139.235

@<SCITEGIC>MOL_PROPERTY
VdW
SciTegic.value.DoubleValue
-25.129

@<SCITEGIC>MOL_PROPERTY
VdW6
SciTegic.value.DoubleValue
-185.340

@<SCITEGIC>MOL_PROPERTY
VdW12
SciTegic.value.DoubleValue
160.210

@<SCITEGIC>MOL_PROPERTY
Bond
SciTegic.value.DoubleValue
5.106

@<SCITEGIC>MOL_PROPERTY
Angle
SciTegic.value.DoubleValue
14.805

@<SCITEGIC>MOL_PROPERTY
Pdih
SciTegic.value.DoubleValue
132.725

@<SCITEGIC>MOL_PROPERTY
Idih
SciTegic.value.DoubleValue
0.015

@<SCITEGIC>MOL_PROPERTY
Tether
SciTegic.value.DoubleValue
0.000

@<TRIPOS>MOLECULE
CD_guest-s19_fast_vm2_rndm.mol2 : feprocess host+ligand conformer 86
         143         148           2
SMALL
USER_CHARGES
 
@<TRIPOS>ATOM
       1    C1      16.294178   15.335485   20.685482 C.3        1 MOL1         0.2972
       2    H1      15.299723   15.122781   20.272424 H          1 MOL1         0.0751
       3    O1      16.375484   16.665105   21.229147 O.3        1 MOL1        -0.3740
       4    C2      16.638015   14.347586   21.832295 C.3        1 MOL1         0.1003
       5    H2      16.604278   13.333659   21.412989 H          1 MOL1         0.0783
       6    O2      15.683044   14.445115   22.901226 O.3        1 MOL1        -0.5519
       7    H3      15.510290   15.408276   23.058734 H          1 MOL1         0.3769
       8    C3      18.073308   14.596455   22.362307 C.3        1 MOL1         0.1053
       9    H4      18.101664   15.586570   22.838754 H          1 MOL1         0.0783
      10    O3      18.413970   13.587621   23.318706 O.3        1 MOL1        -0.5519
      11    H5      17.622554   13.507238   23.896797 H          1 MOL1         0.3769
      12    C4      19.086112   14.589546   21.190774 C.3        1 MOL1         0.1018
      13    H6      19.146782   13.571864   20.782343 H          1 MOL1         0.0783
      14    C5      18.650577   15.555519   20.057552 C.3        1 MOL1         0.1043
      15    H7      18.668486   16.582408   20.446668 H          1 MOL1         0.0783
      16    O4      17.302307   15.210763   19.657043 O.3        1 MOL1        -0.3740
      17    C6      19.559876   15.525242   18.801478 C.3        1 MOL1         0.0138
      18    H8      20.363395   16.259330   18.937784 H          1 MOL1         0.0794
      19    H9      18.972423   15.859858   17.936108 H          1 MOL1         0.0794
      20    O5      20.124369   14.232909   18.541961 O.3        1 MOL1        -0.5486
      21    H10     20.756286   14.034656   19.271579 H          1 MOL1         0.3769
      22    C7      14.511680   20.323506   21.393808 C.3        1 MOL1         0.2972
      23    H11     13.830330   21.183549   21.382684 H          1 MOL1         0.0751
      24    O6      15.875793   20.733436   21.641904 O.3        1 MOL1        -0.3740
      25    C8      14.066873   19.325528   22.490697 C.3        1 MOL1         0.1003
      26    H12     13.090702   18.926404   22.186435 H          1 MOL1         0.0783
      27    O7      13.910567   19.982206   23.757279 O.3        1 MOL1        -0.5519
      28    H13     14.814442   20.111906   24.148393 H          1 MOL1         0.3769
      29    C9      15.061932   18.142216   22.550817 C.3        1 MOL1         0.1053
      30    H14     16.053688   18.535550   22.802866 H          1 MOL1         0.0783
      31    O8      14.658662   17.180567   23.534091 O.3        1 MOL1        -0.5519
      32    H15     14.827550   17.615380   24.411833 H          1 MOL1         0.3769
      33    C10     15.180471   17.465384   21.166453 C.3        1 MOL1         0.1018
      34    H16     14.280480   16.859467   20.998032 H          1 MOL1         0.0783
      35    C11     15.372914   18.489317   20.009360 C.3        1 MOL1         0.1043
      36    H17     16.403405   18.862693   20.070496 H          1 MOL1         0.0783
      37    O9      14.460172   19.613194   20.137989 O.3        1 MOL1        -0.3740
      38    C12     15.185009   17.870477   18.603124 C.3        1 MOL1         0.0138
      39    H18     16.034449   17.206077   18.396414 H          1 MOL1         0.0794
      40    H19     15.212858   18.675860   17.857189 H          1 MOL1         0.0794
      41    O10     13.957836   17.138287   18.496419 O.3        1 MOL1        -0.5486
      42    H20     13.877639   16.824725   17.569276 H          1 MOL1         0.3769
      43    C13     18.498942   23.924850   20.921373 C.3        1 MOL1         0.2972
      44    H21     18.930027   24.891615   20.631769 H          1 MOL1         0.0751
      45    O11     19.530172   22.955316   21.207060 O.3        1 MOL1        -0.3740
      46    C14     17.567822   24.080803   22.153751 C.3        1 MOL1         0.1003
      47    H22     16.761497   24.767165   21.865384 H          1 MOL1         0.0783
      48    O12     18.278062   24.648548   23.265594 O.3        1 MOL1        -0.5519
      49    H23     18.933079   23.970036   23.565592 H          1 MOL1         0.3769
      50    C15     16.919488   22.718182   22.516561 C.3        1 MOL1         0.1053
      51    H24     17.716736   22.038493   22.844404 H          1 MOL1         0.0783
      52    O13     15.965603   22.882580   23.571099 O.3        1 MOL1        -0.5519
      53    H25     16.013125   22.042027   24.099202 H          1 MOL1         0.3769
      54    C16     16.219460   22.089409   21.280823 C.3        1 MOL1         0.1018
      55    H26     15.326755   22.688171   21.057926 H          1 MOL1         0.0783
      56    C17     17.157298   22.074787   20.036509 C.3        1 MOL1         0.1043
      57    H27     17.976923   21.370732   20.232080 H          1 MOL1         0.0783
      58    O14     17.700190   23.403643   19.839480 O.3        1 MOL1        -0.3740
      59    C18     16.498429   21.647344   18.699781 C.3        1 MOL1         0.0138
      60    H28     16.574418   20.558732   18.602112 H          1 MOL1         0.0794
      61    H29     17.081585   22.075337   17.873444 H          1 MOL1         0.0794
      62    O15     15.128908   22.048809   18.587706 O.3        1 MOL1        -0.5486
      63    H30     14.597067   21.350512   19.035186 H          1 MOL1         0.3769
      64    C19     23.586287   22.584494   21.944334 C.3        1 MOL1         0.2972
      65    H31     24.648935   22.722241   22.182027 H          1 MOL1         0.0751
      66    O16     23.325713   21.278105   21.394086 O.3        1 MOL1        -0.3740
      67    C20     22.716757   22.777538   23.212292 C.3        1 MOL1         0.1003
      68    H32     22.853487   23.815236   23.543499 H          1 MOL1         0.0783
      69    O17     23.118621   21.894933   24.271077 O.3        1 MOL1        -0.5519
      70    H33     23.940246   21.435149   23.973857 H          1 MOL1         0.3769
      71    C21     21.220299   22.575968   22.877546 C.3        1 MOL1         0.1053
      72    H34     21.070155   21.526247   22.591413 H          1 MOL1         0.0783
      73    O18     20.439764   22.875262   24.038416 O.3        1 MOL1        -0.5519
      74    H35     20.868109   22.363262   24.760700 H          1 MOL1         0.3769
      75    C22     20.787163   23.474057   21.689698 C.3        1 MOL1         0.1018
      76    H36     20.692826   24.506107   22.052808 H          1 MOL1         0.0783
      77    C23     21.791472   23.423592   20.500733 C.3        1 MOL1         0.1043
      78    H37     21.682227   22.448564   20.008349 H          1 MOL1         0.0783
      79    O19     23.155661   23.563234   20.975852 O.3        1 MOL1        -0.3740
      80    C24     21.537958   24.507691   19.425617 C.3        1 MOL1         0.0138
      81    H38     20.617478   24.252665   18.883256 H          1 MOL1         0.0794
      82    H39     22.361605   24.479521   18.699663 H          1 MOL1         0.0794
      83    O20     21.420101   25.817820   19.994524 O.3        1 MOL1        -0.5486
      84    H40     21.348832   26.459066   19.253940 H          1 MOL1         0.3769
      85    C25     25.132081   17.586232   20.936161 C.3        1 MOL1         0.2972
      86    H41     25.771445   16.728557   20.689999 H          1 MOL1         0.0751
      87    O21     23.824672   17.174680   21.376138 O.3        1 MOL1        -0.3740
      88    C26     25.758154   18.450421   22.059188 C.3        1 MOL1         0.1003
      89    H42     26.715954   18.832342   21.682472 H          1 MOL1         0.0783
      90    O22     25.994889   17.673215   23.243953 O.3        1 MOL1        -0.5519
      91    H43     25.151341   17.201431   23.463984 H          1 MOL1         0.3769
      92    C27     24.852343   19.665072   22.383522 C.3        1 MOL1         0.1053
      93    H44     23.926291   19.286807   22.834908 H          1 MOL1         0.0783
      94    O23     25.532581   20.513774   23.313964 O.3        1 MOL1        -0.5519
      95    H45     25.954648   19.898111   23.955810 H          1 MOL1         0.3769
      96    C28     24.469501   20.454126   21.100823 C.3        1 MOL1         0.1018
      97    H46     25.328190   21.055444   20.776406 H          1 MOL1         0.0783
      98    C29     24.025162   19.524550   19.937970 C.3        1 MOL1         0.1043
      99    H47     23.037528   19.114499   20.188178 H          1 MOL1         0.0783
     100    O24     24.966409   18.435044   19.780914 O.3        1 MOL1        -0.3740
     101    C30     23.874273   20.254027   18.579737 C.3        1 MOL1         0.0138
     102    H48     22.970112   20.876161   18.616115 H          1 MOL1         0.0794
     103    H49     23.716525   19.500699   17.796587 H          1 MOL1         0.0794
     104    O25     25.007799   21.068816   18.256258 O.3        1 MOL1        -0.5486
     105    H50     24.967978   21.868145   18.824256 H          1 MOL1         0.3769
     106    C31     21.318391   13.989197   21.940225 C.3        1 MOL1         0.2972
     107    H51     20.827194   13.020081   22.098372 H          1 MOL1         0.0751
     108    O26     20.356954   15.035915   21.695318 O.3        1 MOL1        -0.3740
     109    C32     22.142450   14.367093   23.192279 C.3        1 MOL1         0.1003
     110    H52     22.922032   13.605272   23.322252 H          1 MOL1         0.0783
     111    O27     21.299882   14.388888   24.354882 O.3        1 MOL1        -0.5519
     112    H53     20.370214   14.450575   24.029681 H          1 MOL1         0.3769
     113    C33     22.833922   15.733486   22.988527 C.3        1 MOL1         0.1053
     114    H54     22.051920   16.500714   22.933742 H          1 MOL1         0.0783
     115    O28     23.700301   16.005522   24.094843 O.3        1 MOL1        -0.5519
     116    H55     23.134861   15.887910   24.890314 H          1 MOL1         0.3769
     117    C34     23.638538   15.778221   21.666519 C.3        1 MOL1         0.1018
     118    H56     24.590821   15.252134   21.815636 H          1 MOL1         0.0783
     119    C35     22.866279   15.177610   20.457172 C.3        1 MOL1         0.1043
     120    H57     22.100779   15.907008   20.168828 H          1 MOL1         0.0783
     121    O29     22.214902   13.930157   20.811441 O.3        1 MOL1        -0.3740
     122    C36     23.754610   14.933089   19.213971 C.3        1 MOL1         0.0138
     123    H58     24.036607   15.906078   18.789371 H          1 MOL1         0.0794
     124    H59     23.160229   14.407114   18.454719 H          1 MOL1         0.0794
     125    O30     24.932587   14.182438   19.533372 O.3        1 MOL1        -0.5486
     126    H60     25.408598   14.003174   18.693167 H          1 MOL1         0.3769
     127    C1      16.713697   19.279044   25.204304 C.2        1 MOL1         0.6173
     128    O1      16.463095   20.428972   24.890307 O.co2      1 MOL1        -0.6755
     129    O2      15.888073   18.551976   25.722058 O.co2      1 MOL1        -0.6755
     130    C2      17.989258   18.653736   24.764090 C.2        1 MOL1        -0.1504
     131    H1      18.107134   17.599689   25.003823 H          1 MOL1         0.0814
     132    C3      18.959988   19.310417   24.090362 C.2        1 MOL1        -0.1394
     133    H2      18.853789   20.365807   23.846600 H          1 MOL1         0.0817
     134    C4      20.242615   18.658394   23.620953 C.3        1 MOL1        -0.1849
     135    H3      20.563557   19.131177   22.683649 H          1 MOL1         0.0736
     136    H4      20.066703   17.600404   23.385512 H          1 MOL1         0.0736
     137    C5      21.377796   18.787203   24.660153 C.3        1 MOL1        -0.1866
     138    H5      22.326034   18.492890   24.195721 H          1 MOL1         0.0738
     139    H6      21.489082   19.838246   24.956614 H          1 MOL1         0.0738
     140    C6      21.147344   17.917109   25.913402 C.3        1 MOL1        -0.2879
     141    H7      22.009358   17.980656   26.589449 H          1 MOL1         0.0750
     142    H8      20.260733   18.250626   26.466987 H          1 MOL1         0.0750
     143    H9      21.004684   16.864083   25.640808 H          1 MOL1         0.0750
@<TRIPOS>BOND
    1     1     2    1
    2     1     3    1
    3     1     4    1
    4     4     5    1
    5     4     6    1
    6     6     7    1
    7     4     8    1
    8     8     9    1
    9     8    10    1
   10    10    11    1
   11     8    12    1
   12    12    13    1
   13    12    14    1
   14    14    15    1
   15     1    16    1
   16    14    16    1
   17    14    17    1
   18    17    18    1
   19    17    19    1
   20    17    20    1
   21    20    21    1
   22    22    23    1
   23    22    24    1
   24    22    25    1
   25    25    26    1
   26    25    27    1
   27    27    28    1
   28    25    29    1
   29    29    30    1
   30    29    31    1
   31    31    32    1
   32     3    33    1
   33    29    33    1
   34    33    34    1
   35    33    35    1
   36    35    36    1
   37    22    37    1
   38    35    37    1
   39    35    38    1
   40    38    39    1
   41    38    40    1
   42    38    41    1
   43    41    42    1
   44    43    44    1
   45    43    45    1
   46    43    46    1
   47    46    47    1
   48    46    48    1
   49    48    49    1
   50    46    50    1
   51    50    51    1
   52    50    52    1
   53    52    53    1
   54    24    54    1
   55    50    54    1
   56    54    55    1
   57    54    56    1
   58    56    57    1
   59    43    58    1
   60    56    58    1
   61    56    59    1
   62    59    60    1
   63    59    61    1
   64    59    62    1
   65    62    63    1
   66    64    65    1
   67    64    66    1
   68    64    67    1
   69    67    68    1
   70    67    69    1
   71    69    70    1
   72    67    71    1
   73    71    72    1
   74    71    73    1
   75    73    74    1
   76    45    75    1
   77    71    75    1
   78    75    76    1
   79    75    77    1
   80    77    78    1
   81    64    79    1
   82    77    79    1
   83    77    80    1
   84    80    81    1
   85    80    82    1
   86    80    83    1
   87    83    84    1
   88    85    86    1
   89    85    87    1
   90    85    88    1
   91    88    89    1
   92    88    90    1
   93    90    91    1
   94    88    92    1
   95    92    93    1
   96    92    94    1
   97    94    95    1
   98    66    96    1
   99    92    96    1
  100    96    97    1
  101    96    98    1
  102    98    99    1
  103    85   100    1
  104    98   100    1
  105    98   101    1
  106   101   102    1
  107   101   103    1
  108   101   104    1
  109   104   105    1
  110   106   107    1
  111    12   108    1
  112   106   108    1
  113   106   109    1
  114   109   110    1
  115   109   111    1
  116   111   112    1
  117   109   113    1
  118   113   114    1
  119   113   115    1
  120   115   116    1
  121    87   117    1
  122   113   117    1
  123   117   118    1
  124   117   119    1
  125   119   120    1
  126   106   121    1
  127   119   121    1
  128   119   122    1
  129   122   123    1
  130   122   124    1
  131   122   125    1
  132   125   126    1
  133   127   128    1
  134   127   129    2
  135   127   130    1
  136   130   131    1
  137   130   132    2
  138   132   133    1
  139   132   134    1
  140   134   135    1
  141   134   136    1
  142   134   137    1
  143   137   138    1
  144   137   139    1
  145   137   140    1
  146   140   141    1
  147   140   142    1
  148   140   143    1
@<TRIPOS>SUBSTRUCTURE
       1 MOL1            1 RESIDUE      1      MOL     
       2 MOL1          143 RESIDUE      1      MOL     
@<SCITEGIC>MOL_PROPERTY
feprocess Rank
SciTegic.value.IntegerValue
86

@<SCITEGIC>MOL_PROPERTY
Conf_Id
SciTegic.value.IntegerValue
802

@<SCITEGIC>MOL_PROPERTY
Probability
SciTegic.value.DoubleValue
0.00

@<SCITEGIC>MOL_PROPERTY
G
SciTegic.value.DoubleValue
500.834

@<SCITEGIC>MOL_PROPERTY
E
SciTegic.value.DoubleValue
317.931

@<SCITEGIC>MOL_PROPERTY
-TS
SciTegic.value.DoubleValue
182.903

@<SCITEGIC>MOL_PROPERTY
U+W
SciTegic.value.DoubleValue
191.843

@<SCITEGIC>MOL_PROPERTY
U
SciTegic.value.DoubleValue
270.864

@<SCITEGIC>MOL_PROPERTY
W
SciTegic.value.DoubleValue
-79.021

@<SCITEGIC>MOL_PROPERTY
W(PB)
SciTegic.value.DoubleValue
-85.174

@<SCITEGIC>MOL_PROPERTY
W(SA)
SciTegic.value.DoubleValue
6.153

@<SCITEGIC>MOL_PROPERTY
Valence
SciTegic.value.DoubleValue
149.195

@<SCITEGIC>MOL_PROPERTY
Coulomb
SciTegic.value.DoubleValue
140.420

@<SCITEGIC>MOL_PROPERTY
VdW
SciTegic.value.DoubleValue
-18.751

@<SCITEGIC>MOL_PROPERTY
VdW6
SciTegic.value.DoubleValue
-173.630

@<SCITEGIC>MOL_PROPERTY
VdW12
SciTegic.value.DoubleValue
154.879

@<SCITEGIC>MOL_PROPERTY
Bond
SciTegic.value.DoubleValue
4.978

@<SCITEGIC>MOL_PROPERTY
Angle
SciTegic.value.DoubleValue
14.189

@<SCITEGIC>MOL_PROPERTY
Pdih
SciTegic.value.DoubleValue
129.964

@<SCITEGIC>MOL_PROPERTY
Idih
SciTegic.value.DoubleValue
0.064

@<SCITEGIC>MOL_PROPERTY
Tether
SciTegic.value.DoubleValue
0.000

@<TRIPOS>MOLECULE
CD_guest-s19_fast_vm2_rndm.mol2 : feprocess host+ligand conformer 87
         143         148           2
SMALL
USER_CHARGES
 
@<TRIPOS>ATOM
       1    C1      16.014517   15.157316   20.495965 C.3        1 MOL1         0.2972
       2    H1      15.062456   14.991585   19.975736 H          1 MOL1         0.0751
       3    O1      15.871275   16.116148   21.559460 O.3        1 MOL1        -0.3740
       4    C2      16.512192   13.836361   21.130791 C.3        1 MOL1         0.1003
       5    H2      16.625753   13.103604   20.321165 H          1 MOL1         0.0783
       6    O2      15.552979   13.352439   22.082706 O.3        1 MOL1        -0.5519
       7    H3      15.320608   14.125368   22.646561 H          1 MOL1         0.3769
       8    C3      17.890424   14.015941   21.816044 C.3        1 MOL1         0.1053
       9    H4      17.750491   14.647834   22.703165 H          1 MOL1         0.0783
      10    O3      18.360042   12.723873   22.211014 O.3        1 MOL1        -0.5519
      11    H5      17.597312   12.297664   22.661176 H          1 MOL1         0.3769
      12    C4      18.914317   14.718284   20.879398 C.3        1 MOL1         0.1018
      13    H6      19.232563   14.007102   20.106307 H          1 MOL1         0.0783
      14    C5      18.301370   15.974329   20.199358 C.3        1 MOL1         0.1043
      15    H7      18.133248   16.738950   20.969142 H          1 MOL1         0.0783
      16    O4      17.038487   15.620790   19.588515 O.3        1 MOL1        -0.3740
      17    C6      19.201460   16.617371   19.115770 C.3        1 MOL1         0.0138
      18    H8      19.954829   17.239072   19.615987 H          1 MOL1         0.0794
      19    H9      18.587539   17.292550   18.505317 H          1 MOL1         0.0794
      20    O5      19.842516   15.647410   18.277405 O.3        1 MOL1        -0.5486
      21    H10     20.394878   15.075915   18.852939 H          1 MOL1         0.3769
      22    C7      14.727893   20.088301   21.602868 C.3        1 MOL1         0.2972
      23    H11     14.204100   21.053200   21.613981 H          1 MOL1         0.0751
      24    O6      16.157921   20.266448   21.610886 O.3        1 MOL1        -0.3740
      25    C8      14.301146   19.263097   22.833991 C.3        1 MOL1         0.1003
      26    H12     13.216601   19.107222   22.766184 H          1 MOL1         0.0783
      27    O7      14.604313   19.974477   24.045032 O.3        1 MOL1        -0.5519
      28    H13     15.203511   20.720042   23.795543 H          1 MOL1         0.3769
      29    C9      14.983130   17.879905   22.832096 C.3        1 MOL1         0.1053
      30    H14     16.054090   18.042005   23.010096 H          1 MOL1         0.0783
      31    O8      14.429925   17.094020   23.893277 O.3        1 MOL1        -0.5519
      32    H15     14.477329   17.672369   24.685849 H          1 MOL1         0.3769
      33    C10     14.840832   17.130908   21.479092 C.3        1 MOL1         0.1018
      34    H16     13.845409   16.671006   21.437939 H          1 MOL1         0.0783
      35    C11     15.047938   18.065266   20.237191 C.3        1 MOL1         0.1043
      36    H17     16.124565   18.235800   20.124584 H          1 MOL1         0.0783
      37    O9      14.381175   19.340913   20.424980 O.3        1 MOL1        -0.3740
      38    C12     14.505300   17.512888   18.891464 C.3        1 MOL1         0.0138
      39    H18     15.205280   16.778344   18.479162 H          1 MOL1         0.0794
      40    H19     14.467208   18.339321   18.168760 H          1 MOL1         0.0794
      41    O10     13.206315   16.925012   19.029979 O.3        1 MOL1        -0.5486
      42    H20     12.888117   16.688989   18.131214 H          1 MOL1         0.3769
      43    C13     18.702088   23.562286   20.847659 C.3        1 MOL1         0.2972
      44    H21     19.036049   24.520906   20.430007 H          1 MOL1         0.0751
      45    O11     19.770399   22.881305   21.524803 O.3        1 MOL1        -0.3740
      46    C14     17.560963   23.782675   21.879502 C.3        1 MOL1         0.1003
      47    H22     16.764808   24.340146   21.369282 H          1 MOL1         0.0783
      48    O12     18.025481   24.549898   23.002615 O.3        1 MOL1        -0.5519
      49    H23     18.889850   24.159510   23.290138 H          1 MOL1         0.3769
      50    C15     16.963210   22.435287   22.360410 C.3        1 MOL1         0.1053
      51    H24     17.725168   21.905025   22.948800 H          1 MOL1         0.0783
      52    O13     15.807779   22.686801   23.167657 O.3        1 MOL1        -0.5519
      53    H25     16.077234   23.405676   23.782113 H          1 MOL1         0.3769
      54    C16     16.588297   21.558468   21.141882 C.3        1 MOL1         0.1018
      55    H26     15.793924   22.064040   20.576070 H          1 MOL1         0.0783
      56    C17     17.805529   21.376267   20.203220 C.3        1 MOL1         0.1043
      57    H27     18.611544   20.876835   20.757686 H          1 MOL1         0.0783
      58    O14     18.234619   22.695160   19.788940 O.3        1 MOL1        -0.3740
      59    C18     17.517522   20.530549   18.936802 C.3        1 MOL1         0.0138
      60    H28     17.649100   19.472123   19.191816 H          1 MOL1         0.0794
      61    H29     18.272540   20.769913   18.176225 H          1 MOL1         0.0794
      62    O15     16.201587   20.740277   18.408305 O.3        1 MOL1        -0.5486
      63    H30     15.559095   20.387658   19.066803 H          1 MOL1         0.3769
      64    C19     23.846964   22.930039   22.016920 C.3        1 MOL1         0.2972
      65    H31     24.916205   23.152917   22.123183 H          1 MOL1         0.0751
      66    O16     23.600503   21.507210   22.056327 O.3        1 MOL1        -0.3740
      67    C20     23.054457   23.614832   23.157437 C.3        1 MOL1         0.1003
      68    H32     23.130762   24.697969   22.996871 H          1 MOL1         0.0783
      69    O17     23.621979   23.311402   24.441679 O.3        1 MOL1        -0.5519
      70    H33     23.357094   22.387927   24.693053 H          1 MOL1         0.3769
      71    C21     21.558961   23.228561   23.047826 C.3        1 MOL1         0.1053
      72    H34     21.471567   22.140056   23.135613 H          1 MOL1         0.0783
      73    O18     20.783492   23.849750   24.079334 O.3        1 MOL1        -0.5519
      74    H35     20.987710   23.317336   24.893147 H          1 MOL1         0.3769
      75    C22     21.004023   23.612260   21.658806 C.3        1 MOL1         0.1018
      76    H36     20.847473   24.698935   21.636445 H          1 MOL1         0.0783
      77    C23     21.935812   23.165749   20.492744 C.3        1 MOL1         0.1043
      78    H37     21.818687   22.079826   20.388250 H          1 MOL1         0.0783
      79    O19     23.331008   23.459498   20.777159 O.3        1 MOL1        -0.3740
      80    C24     21.580225   23.806707   19.128754 C.3        1 MOL1         0.0138
      81    H38     20.649151   23.356495   18.759922 H          1 MOL1         0.0794
      82    H39     22.368680   23.557358   18.406211 H          1 MOL1         0.0794
      83    O20     21.430118   25.228353   19.224412 O.3        1 MOL1        -0.5486
      84    H40     21.288013   25.575127   18.316646 H          1 MOL1         0.3769
      85    C25     25.005996   17.797669   20.883186 C.3        1 MOL1         0.2972
      86    H41     25.548854   16.929380   20.488030 H          1 MOL1         0.0751
      87    O21     23.643394   17.462270   21.229409 O.3        1 MOL1        -0.3740
      88    C26     25.724159   18.393182   22.119884 C.3        1 MOL1         0.1003
      89    H42     26.701457   18.764195   21.785587 H          1 MOL1         0.0783
      90    O22     25.930653   17.387730   23.123467 O.3        1 MOL1        -0.5519
      91    H43     25.037392   17.139315   23.468815 H          1 MOL1         0.3769
      92    C27     24.914435   19.601659   22.658397 C.3        1 MOL1         0.1053
      93    H44     23.948877   19.223580   23.018900 H          1 MOL1         0.0783
      94    O23     25.605304   20.235887   23.739829 O.3        1 MOL1        -0.5519
      95    H45     24.891960   20.495360   24.380938 H          1 MOL1         0.3769
      96    C28     24.637967   20.645750   21.539635 C.3        1 MOL1         0.1018
      97    H46     25.570492   21.194439   21.355080 H          1 MOL1         0.0783
      98    C29     24.139611   19.988929   20.211831 C.3        1 MOL1         0.1043
      99    H47     23.104737   19.655247   20.364632 H          1 MOL1         0.0783
     100    O24     24.964748   18.842005   19.892175 O.3        1 MOL1        -0.3740
     101    C30     24.142774   20.902306   18.956848 C.3        1 MOL1         0.0138
     102    H48     23.147526   21.342167   18.835439 H          1 MOL1         0.0794
     103    H49     24.308415   20.274218   18.071176 H          1 MOL1         0.0794
     104    O25     25.129520   21.938352   19.003568 O.3        1 MOL1        -0.5486
     105    H50     24.758407   22.654259   19.570459 H          1 MOL1         0.3769
     106    C31     21.103256   14.222225   21.860565 C.3        1 MOL1         0.2972
     107    H51     20.711496   13.212744   22.029844 H          1 MOL1         0.0751
     108    O26     20.035341   15.175299   21.667212 O.3        1 MOL1        -0.3740
     109    C32     21.929321   14.667527   23.091089 C.3        1 MOL1         0.1003
     110    H52     22.748066   13.947466   23.219322 H          1 MOL1         0.0783
     111    O27     21.113150   14.669653   24.271173 O.3        1 MOL1        -0.5519
     112    H53     20.269076   15.102440   24.017563 H          1 MOL1         0.3769
     113    C33     22.550145   16.063600   22.860131 C.3        1 MOL1         0.1053
     114    H54     21.737342   16.796611   22.767029 H          1 MOL1         0.0783
     115    O28     23.374960   16.391462   23.981353 O.3        1 MOL1        -0.5519
     116    H55     22.832542   16.169552   24.770765 H          1 MOL1         0.3769
     117    C34     23.375343   16.083124   21.549839 C.3        1 MOL1         0.1018
     118    H56     24.298083   15.507040   21.701637 H          1 MOL1         0.0783
     119    C35     22.570534   15.503762   20.354457 C.3        1 MOL1         0.1043
     120    H57     21.780321   16.223182   20.118368 H          1 MOL1         0.0783
     121    O29     21.962907   14.233191   20.698995 O.3        1 MOL1        -0.3740
     122    C36     23.418997   15.309900   19.074653 C.3        1 MOL1         0.0138
     123    H58     23.668522   16.299587   18.668386 H          1 MOL1         0.0794
     124    H59     22.808873   14.793406   18.321606 H          1 MOL1         0.0794
     125    O30     24.621004   14.573688   19.332829 O.3        1 MOL1        -0.5486
     126    H60     25.068892   14.422917   18.471885 H          1 MOL1         0.3769
     127    C1      22.011925   20.677682   25.233109 C.2        1 MOL1         0.6173
     128    O1      21.427103   21.614172   25.745885 O.co2      1 MOL1        -0.6755
     129    O2      23.224978   20.587786   25.242819 O.co2      1 MOL1        -0.6755
     130    C2      21.254445   19.709569   24.394129 C.2        1 MOL1        -0.1504
     131    H1      21.837669   18.911490   23.943994 H          1 MOL1         0.0814
     132    C3      19.925032   19.798820   24.163163 C.2        1 MOL1        -0.1394
     133    H2      19.336289   20.602059   24.605173 H          1 MOL1         0.0817
     134    C4      19.151642   18.825794   23.299346 C.3        1 MOL1        -0.1849
     135    H3      19.723665   18.599786   22.389850 H          1 MOL1         0.0736
     136    H4      18.215556   19.291755   22.969284 H          1 MOL1         0.0736
     137    C5      18.833448   17.511979   24.043421 C.3        1 MOL1        -0.1866
     138    H5      18.307480   16.831527   23.362623 H          1 MOL1         0.0738
     139    H6      19.771584   17.022197   24.329597 H          1 MOL1         0.0738
     140    C6      17.971066   17.732807   25.304291 C.3        1 MOL1        -0.2879
     141    H7      17.050219   18.279092   25.066342 H          1 MOL1         0.0750
     142    H8      17.690455   16.771568   25.753205 H          1 MOL1         0.0750
     143    H9      18.520201   18.309733   26.059526 H          1 MOL1         0.0750
@<TRIPOS>BOND
    1     1     2    1
    2     1     3    1
    3     1     4    1
    4     4     5    1
    5     4     6    1
    6     6     7    1
    7     4     8    1
    8     8     9    1
    9     8    10    1
   10    10    11    1
   11     8    12    1
   12    12    13    1
   13    12    14    1
   14    14    15    1
   15     1    16    1
   16    14    16    1
   17    14    17    1
   18    17    18    1
   19    17    19    1
   20    17    20    1
   21    20    21    1
   22    22    23    1
   23    22    24    1
   24    22    25    1
   25    25    26    1
   26    25    27    1
   27    27    28    1
   28    25    29    1
   29    29    30    1
   30    29    31    1
   31    31    32    1
   32     3    33    1
   33    29    33    1
   34    33    34    1
   35    33    35    1
   36    35    36    1
   37    22    37    1
   38    35    37    1
   39    35    38    1
   40    38    39    1
   41    38    40    1
   42    38    41    1
   43    41    42    1
   44    43    44    1
   45    43    45    1
   46    43    46    1
   47    46    47    1
   48    46    48    1
   49    48    49    1
   50    46    50    1
   51    50    51    1
   52    50    52    1
   53    52    53    1
   54    24    54    1
   55    50    54    1
   56    54    55    1
   57    54    56    1
   58    56    57    1
   59    43    58    1
   60    56    58    1
   61    56    59    1
   62    59    60    1
   63    59    61    1
   64    59    62    1
   65    62    63    1
   66    64    65    1
   67    64    66    1
   68    64    67    1
   69    67    68    1
   70    67    69    1
   71    69    70    1
   72    67    71    1
   73    71    72    1
   74    71    73    1
   75    73    74    1
   76    45    75    1
   77    71    75    1
   78    75    76    1
   79    75    77    1
   80    77    78    1
   81    64    79    1
   82    77    79    1
   83    77    80    1
   84    80    81    1
   85    80    82    1
   86    80    83    1
   87    83    84    1
   88    85    86    1
   89    85    87    1
   90    85    88    1
   91    88    89    1
   92    88    90    1
   93    90    91    1
   94    88    92    1
   95    92    93    1
   96    92    94    1
   97    94    95    1
   98    66    96    1
   99    92    96    1
  100    96    97    1
  101    96    98    1
  102    98    99    1
  103    85   100    1
  104    98   100    1
  105    98   101    1
  106   101   102    1
  107   101   103    1
  108   101   104    1
  109   104   105    1
  110   106   107    1
  111    12   108    1
  112   106   108    1
  113   106   109    1
  114   109   110    1
  115   109   111    1
  116   111   112    1
  117   109   113    1
  118   113   114    1
  119   113   115    1
  120   115   116    1
  121    87   117    1
  122   113   117    1
  123   117   118    1
  124   117   119    1
  125   119   120    1
  126   106   121    1
  127   119   121    1
  128   119   122    1
  129   122   123    1
  130   122   124    1
  131   122   125    1
  132   125   126    1
  133   127   128    1
  134   127   129    2
  135   127   130    1
  136   130   131    1
  137   130   132    2
  138   132   133    1
  139   132   134    1
  140   134   135    1
  141   134   136    1
  142   134   137    1
  143   137   138    1
  144   137   139    1
  145   137   140    1
  146   140   141    1
  147   140   142    1
  148   140   143    1
@<TRIPOS>SUBSTRUCTURE
       1 MOL1            1 RESIDUE      1      MOL     
       2 MOL1          143 RESIDUE      1      MOL     
@<SCITEGIC>MOL_PROPERTY
feprocess Rank
SciTegic.value.IntegerValue
87

@<SCITEGIC>MOL_PROPERTY
Conf_Id
SciTegic.value.IntegerValue
107

@<SCITEGIC>MOL_PROPERTY
Probability
SciTegic.value.DoubleValue
0.00

@<SCITEGIC>MOL_PROPERTY
G
SciTegic.value.DoubleValue
501.033

@<SCITEGIC>MOL_PROPERTY
E
SciTegic.value.DoubleValue
317.927

@<SCITEGIC>MOL_PROPERTY
-TS
SciTegic.value.DoubleValue
183.106

@<SCITEGIC>MOL_PROPERTY
U+W
SciTegic.value.DoubleValue
191.838

@<SCITEGIC>MOL_PROPERTY
U
SciTegic.value.DoubleValue
268.965

@<SCITEGIC>MOL_PROPERTY
W
SciTegic.value.DoubleValue
-77.127

@<SCITEGIC>MOL_PROPERTY
W(PB)
SciTegic.value.DoubleValue
-83.119

@<SCITEGIC>MOL_PROPERTY
W(SA)
SciTegic.value.DoubleValue
5.992

@<SCITEGIC>MOL_PROPERTY
Valence
SciTegic.value.DoubleValue
147.057

@<SCITEGIC>MOL_PROPERTY
Coulomb
SciTegic.value.DoubleValue
143.839

@<SCITEGIC>MOL_PROPERTY
VdW
SciTegic.value.DoubleValue
-21.930

@<SCITEGIC>MOL_PROPERTY
VdW6
SciTegic.value.DoubleValue
-178.707

@<SCITEGIC>MOL_PROPERTY
VdW12
SciTegic.value.DoubleValue
156.776

@<SCITEGIC>MOL_PROPERTY
Bond
SciTegic.value.DoubleValue
5.123

@<SCITEGIC>MOL_PROPERTY
Angle
SciTegic.value.DoubleValue
16.212

@<SCITEGIC>MOL_PROPERTY
Pdih
SciTegic.value.DoubleValue
125.665

@<SCITEGIC>MOL_PROPERTY
Idih
SciTegic.value.DoubleValue
0.057

@<SCITEGIC>MOL_PROPERTY
Tether
SciTegic.value.DoubleValue
0.000

@<TRIPOS>MOLECULE
CD_guest-s19_fast_vm2_rndm.mol2 : feprocess host+ligand conformer 88
         143         148           2
SMALL
USER_CHARGES
 
@<TRIPOS>ATOM
       1    C1      16.260410   15.275178   20.811840 C.3        1 MOL1         0.2972
       2    H1      15.242908   15.070127   20.455000 H          1 MOL1         0.0751
       3    O1      16.382672   16.609604   21.338285 O.3        1 MOL1        -0.3740
       4    C2      16.646330   14.297161   21.953361 C.3        1 MOL1         0.1003
       5    H2      16.559244   13.277207   21.557082 H          1 MOL1         0.0783
       6    O2      15.758476   14.446855   23.073341 O.3        1 MOL1        -0.5519
       7    H3      15.613296   15.418172   23.205629 H          1 MOL1         0.3769
       8    C3      18.115536   14.513936   22.397286 C.3        1 MOL1         0.1053
       9    H4      18.187681   15.503085   22.868337 H          1 MOL1         0.0783
      10    O3      18.490454   13.501086   23.336701 O.3        1 MOL1        -0.5519
      11    H5      17.737161   13.446367   23.966289 H          1 MOL1         0.3769
      12    C4      19.064953   14.484886   21.174322 C.3        1 MOL1         0.1018
      13    H6      19.088418   13.463669   20.771174 H          1 MOL1         0.0783
      14    C5      18.583780   15.449317   20.058367 C.3        1 MOL1         0.1043
      15    H7      18.633610   16.478176   20.436469 H          1 MOL1         0.0783
      16    O4      17.211736   15.121589   19.733856 O.3        1 MOL1        -0.3740
      17    C6      19.425277   15.401096   18.756312 C.3        1 MOL1         0.0138
      18    H8      20.242206   16.127773   18.844311 H          1 MOL1         0.0794
      19    H9      18.795739   15.734760   17.920705 H          1 MOL1         0.0794
      20    O5      19.964587   14.102683   18.476928 O.3        1 MOL1        -0.5486
      21    H10     20.667721   13.927328   19.145133 H          1 MOL1         0.3769
      22    C7      14.577031   20.326420   21.399020 C.3        1 MOL1         0.2972
      23    H11     13.892341   21.183137   21.359431 H          1 MOL1         0.0751
      24    O6      15.938827   20.754649   21.632608 O.3        1 MOL1        -0.3740
      25    C8      14.129085   19.358850   22.522998 C.3        1 MOL1         0.1003
      26    H12     13.157765   18.946629   22.220610 H          1 MOL1         0.0783
      27    O7      13.948169   20.049759   23.769060 O.3        1 MOL1        -0.5519
      28    H13     14.840412   20.256921   24.149964 H          1 MOL1         0.3769
      29    C9      15.125690   18.177996   22.616873 C.3        1 MOL1         0.1053
      30    H14     16.121509   18.580236   22.821794 H          1 MOL1         0.0783
      31    O8      14.758970   17.265656   23.658714 O.3        1 MOL1        -0.5519
      32    H15     15.003239   17.734144   24.499603 H          1 MOL1         0.3769
      33    C10     15.212795   17.447220   21.258281 C.3        1 MOL1         0.1018
      34    H16     14.292233   16.866678   21.113620 H          1 MOL1         0.0783
      35    C11     15.429130   18.436552   20.075895 C.3        1 MOL1         0.1043
      36    H17     16.464808   18.791868   20.142680 H          1 MOL1         0.0783
      37    O9      14.533374   19.579221   20.163980 O.3        1 MOL1        -0.3740
      38    C12     15.243032   17.788938   18.682679 C.3        1 MOL1         0.0138
      39    H18     16.087321   17.113718   18.492862 H          1 MOL1         0.0794
      40    H19     15.281420   18.578139   17.919894 H          1 MOL1         0.0794
      41    O10     14.009608   17.065865   18.586959 O.3        1 MOL1        -0.5486
      42    H20     13.933588   16.727030   17.668475 H          1 MOL1         0.3769
      43    C13     18.549422   23.941844   20.865457 C.3        1 MOL1         0.2972
      44    H21     18.998120   24.882602   20.521277 H          1 MOL1         0.0751
      45    O11     19.541812   23.045254   21.404282 O.3        1 MOL1        -0.3740
      46    C14     17.482696   24.204998   21.958122 C.3        1 MOL1         0.1003
      47    H22     16.708977   24.845808   21.516438 H          1 MOL1         0.0783
      48    O12     18.075780   24.888969   23.074733 O.3        1 MOL1        -0.5519
      49    H23     18.813944   24.321797   23.410586 H          1 MOL1         0.3769
      50    C15     16.808970   22.873808   22.389087 C.3        1 MOL1         0.1053
      51    H24     17.567582   22.263108   22.895432 H          1 MOL1         0.0783
      52    O13     15.724063   23.129993   23.287080 O.3        1 MOL1        -0.5519
      53    H25     15.772615   22.403412   23.962444 H          1 MOL1         0.3769
      54    C16     16.284355   22.077863   21.161513 C.3        1 MOL1         0.1018
      55    H26     15.409726   22.608202   20.762874 H          1 MOL1         0.0783
      56    C17     17.364618   21.959618   20.044711 C.3        1 MOL1         0.1043
      57    H27     18.169342   21.307786   20.410006 H          1 MOL1         0.0783
      58    O14     17.899511   23.275696   19.764699 O.3        1 MOL1        -0.3740
      59    C18     16.876370   21.374136   18.693991 C.3        1 MOL1         0.0138
      60    H28     17.002361   20.286444   18.712362 H          1 MOL1         0.0794
      61    H29     17.534273   21.746981   17.897576 H          1 MOL1         0.0794
      62    O15     15.515861   21.701625   18.390675 O.3        1 MOL1        -0.5486
      63    H30     14.952194   21.086637   18.916170 H          1 MOL1         0.3769
      64    C19     23.596465   22.669337   22.092880 C.3        1 MOL1         0.2972
      65    H31     24.668782   22.817685   22.275737 H          1 MOL1         0.0751
      66    O16     23.284599   21.273838   21.911001 O.3        1 MOL1        -0.3740
      67    C20     22.784786   23.199357   23.298967 C.3        1 MOL1         0.1003
      68    H32     22.991059   24.273501   23.392827 H          1 MOL1         0.0783
      69    O17     23.190462   22.530999   24.502516 O.3        1 MOL1        -0.5519
      70    H33     23.485656   21.630831   24.232315 H          1 MOL1         0.3769
      71    C21     21.267515   23.022015   23.062755 C.3        1 MOL1         0.1053
      72    H34     21.049493   21.948186   23.054088 H          1 MOL1         0.0783
      73    O18     20.544481   23.650031   24.125887 O.3        1 MOL1        -0.5519
      74    H35     20.979650   23.333295   24.948627 H          1 MOL1         0.3769
      75    C22     20.831391   23.616426   21.700954 C.3        1 MOL1         0.1018
      76    H36     20.788127   24.709830   21.794757 H          1 MOL1         0.0783
      77    C23     21.780780   23.211366   20.538096 C.3        1 MOL1         0.1043
      78    H37     21.595819   22.151562   20.328031 H          1 MOL1         0.0783
      79    O19     23.172496   23.384051   20.913374 O.3        1 MOL1        -0.3740
      80    C24     21.529381   23.993042   19.226188 C.3        1 MOL1         0.0138
      81    H38     20.573829   23.660847   18.798442 H          1 MOL1         0.0794
      82    H39     22.315792   23.732692   18.505020 H          1 MOL1         0.0794
      83    O20     21.499869   25.409346   19.441239 O.3        1 MOL1        -0.5486
      84    H40     21.417475   25.842459   18.563667 H          1 MOL1         0.3769
      85    C25     25.039574   17.647421   20.869017 C.3        1 MOL1         0.2972
      86    H41     25.677311   16.843053   20.480114 H          1 MOL1         0.0751
      87    O21     23.771297   17.150066   21.333303 O.3        1 MOL1        -0.3740
      88    C26     25.722240   18.389920   22.046897 C.3        1 MOL1         0.1003
      89    H42     26.649296   18.834143   21.661883 H          1 MOL1         0.0783
      90    O22     26.042278   17.486695   23.117022 O.3        1 MOL1        -0.5519
      91    H43     25.216493   16.985855   23.339767 H          1 MOL1         0.3769
      92    C27     24.817616   19.538180   22.560081 C.3        1 MOL1         0.1053
      93    H44     23.925759   19.086348   23.011930 H          1 MOL1         0.0783
      94    O23     25.522042   20.302283   23.543808 O.3        1 MOL1        -0.5519
      95    H45     25.932732   19.637790   24.140126 H          1 MOL1         0.3769
      96    C28     24.359303   20.460289   21.400523 C.3        1 MOL1         0.1018
      97    H46     25.217706   21.065897   21.081448 H          1 MOL1         0.0783
      98    C29     23.822391   19.658398   20.180139 C.3        1 MOL1         0.1043
      99    H47     22.867893   19.195945   20.463624 H          1 MOL1         0.0783
     100    O24     24.776125   18.622333   19.836715 O.3        1 MOL1        -0.3740
     101    C30     23.551645   20.503805   18.907367 C.3        1 MOL1         0.0138
     102    H48     22.506222   20.833307   18.921506 H          1 MOL1         0.0794
     103    H49     23.659935   19.853966   18.028700 H          1 MOL1         0.0794
     104    O25     24.415615   21.640348   18.782021 O.3        1 MOL1        -0.5486
     105    H50     24.141944   22.293355   19.468223 H          1 MOL1         0.3769
     106    C31     21.355739   13.873678   21.728153 C.3        1 MOL1         0.2972
     107    H51     20.889522   12.884379   21.823817 H          1 MOL1         0.0751
     108    O26     20.366354   14.916112   21.612560 O.3        1 MOL1        -0.3740
     109    C32     22.229678   14.159861   22.971523 C.3        1 MOL1         0.1003
     110    H52     23.017960   13.396660   23.006108 H          1 MOL1         0.0783
     111    O27     21.439092   14.082217   24.168473 O.3        1 MOL1        -0.5519
     112    H53     20.494102   14.166445   23.891942 H          1 MOL1         0.3769
     113    C33     22.907030   15.543777   22.857199 C.3        1 MOL1         0.1053
     114    H54     22.122882   16.305350   22.921733 H          1 MOL1         0.0783
     115    O28     23.829501   15.716260   23.937515 O.3        1 MOL1        -0.5519
     116    H55     23.326828   15.452220   24.740098 H          1 MOL1         0.3769
     117    C34     23.635513   15.728001   21.503069 C.3        1 MOL1         0.1018
     118    H56     24.606934   15.218287   21.550921 H          1 MOL1         0.0783
     119    C35     22.809226   15.219133   20.286964 C.3        1 MOL1         0.1043
     120    H57     22.014589   15.952661   20.105373 H          1 MOL1         0.0783
     121    O29     22.202910   13.929528   20.562053 O.3        1 MOL1        -0.3740
     122    C36     23.632677   15.107664   18.981758 C.3        1 MOL1         0.0138
     123    H58     23.872401   16.121239   18.632856 H          1 MOL1         0.0794
     124    H59     23.007420   14.637451   18.210798 H          1 MOL1         0.0794
     125    O30     24.840548   14.359901   19.168970 O.3        1 MOL1        -0.5486
     126    H60     25.271981   14.266088   18.291656 H          1 MOL1         0.3769
     127    C1      16.829292   19.820320   25.046291 C.2        1 MOL1         0.6173
     128    O1      16.207643   18.914444   25.570688 O.co2      1 MOL1        -0.6755
     129    O2      16.384071   20.949132   24.963280 O.co2      1 MOL1        -0.6755
     130    C2      18.049926   19.506371   24.256136 C.2        1 MOL1        -0.1504
     131    H1      18.495675   20.341339   23.724286 H          1 MOL1         0.0814
     132    C3      18.560896   18.258689   24.140866 C.2        1 MOL1        -0.1394
     133    H2      18.092739   17.426242   24.665244 H          1 MOL1         0.0817
     134    C4      19.736281   17.873158   23.264337 C.3        1 MOL1        -0.1849
     135    H3      19.380674   17.732647   22.236622 H          1 MOL1         0.0736
     136    H4      20.113495   16.897800   23.594220 H          1 MOL1         0.0736
     137    C5      20.899495   18.889642   23.249479 C.3        1 MOL1        -0.1866
     138    H5      21.662782   18.547602   22.539918 H          1 MOL1         0.0738
     139    H6      20.543572   19.851958   22.866323 H          1 MOL1         0.0738
     140    C6      21.545412   19.073208   24.638600 C.3        1 MOL1        -0.2879
     141    H7      21.951768   18.123049   25.008391 H          1 MOL1         0.0750
     142    H8      22.365179   19.799138   24.593413 H          1 MOL1         0.0750
     143    H9      20.813892   19.440647   25.369380 H          1 MOL1         0.0750
@<TRIPOS>BOND
    1     1     2    1
    2     1     3    1
    3     1     4    1
    4     4     5    1
    5     4     6    1
    6     6     7    1
    7     4     8    1
    8     8     9    1
    9     8    10    1
   10    10    11    1
   11     8    12    1
   12    12    13    1
   13    12    14    1
   14    14    15    1
   15     1    16    1
   16    14    16    1
   17    14    17    1
   18    17    18    1
   19    17    19    1
   20    17    20    1
   21    20    21    1
   22    22    23    1
   23    22    24    1
   24    22    25    1
   25    25    26    1
   26    25    27    1
   27    27    28    1
   28    25    29    1
   29    29    30    1
   30    29    31    1
   31    31    32    1
   32     3    33    1
   33    29    33    1
   34    33    34    1
   35    33    35    1
   36    35    36    1
   37    22    37    1
   38    35    37    1
   39    35    38    1
   40    38    39    1
   41    38    40    1
   42    38    41    1
   43    41    42    1
   44    43    44    1
   45    43    45    1
   46    43    46    1
   47    46    47    1
   48    46    48    1
   49    48    49    1
   50    46    50    1
   51    50    51    1
   52    50    52    1
   53    52    53    1
   54    24    54    1
   55    50    54    1
   56    54    55    1
   57    54    56    1
   58    56    57    1
   59    43    58    1
   60    56    58    1
   61    56    59    1
   62    59    60    1
   63    59    61    1
   64    59    62    1
   65    62    63    1
   66    64    65    1
   67    64    66    1
   68    64    67    1
   69    67    68    1
   70    67    69    1
   71    69    70    1
   72    67    71    1
   73    71    72    1
   74    71    73    1
   75    73    74    1
   76    45    75    1
   77    71    75    1
   78    75    76    1
   79    75    77    1
   80    77    78    1
   81    64    79    1
   82    77    79    1
   83    77    80    1
   84    80    81    1
   85    80    82    1
   86    80    83    1
   87    83    84    1
   88    85    86    1
   89    85    87    1
   90    85    88    1
   91    88    89    1
   92    88    90    1
   93    90    91    1
   94    88    92    1
   95    92    93    1
   96    92    94    1
   97    94    95    1
   98    66    96    1
   99    92    96    1
  100    96    97    1
  101    96    98    1
  102    98    99    1
  103    85   100    1
  104    98   100    1
  105    98   101    1
  106   101   102    1
  107   101   103    1
  108   101   104    1
  109   104   105    1
  110   106   107    1
  111    12   108    1
  112   106   108    1
  113   106   109    1
  114   109   110    1
  115   109   111    1
  116   111   112    1
  117   109   113    1
  118   113   114    1
  119   113   115    1
  120   115   116    1
  121    87   117    1
  122   113   117    1
  123   117   118    1
  124   117   119    1
  125   119   120    1
  126   106   121    1
  127   119   121    1
  128   119   122    1
  129   122   123    1
  130   122   124    1
  131   122   125    1
  132   125   126    1
  133   127   128    1
  134   127   129    2
  135   127   130    1
  136   130   131    1
  137   130   132    2
  138   132   133    1
  139   132   134    1
  140   134   135    1
  141   134   136    1
  142   134   137    1
  143   137   138    1
  144   137   139    1
  145   137   140    1
  146   140   141    1
  147   140   142    1
  148   140   143    1
@<TRIPOS>SUBSTRUCTURE
       1 MOL1            1 RESIDUE      1      MOL     
       2 MOL1          143 RESIDUE      1      MOL     
@<SCITEGIC>MOL_PROPERTY
feprocess Rank
SciTegic.value.IntegerValue
88

@<SCITEGIC>MOL_PROPERTY
Conf_Id
SciTegic.value.IntegerValue
887

@<SCITEGIC>MOL_PROPERTY
Probability
SciTegic.value.DoubleValue
0.00

@<SCITEGIC>MOL_PROPERTY
G
SciTegic.value.DoubleValue
501.119

@<SCITEGIC>MOL_PROPERTY
E
SciTegic.value.DoubleValue
317.819

@<SCITEGIC>MOL_PROPERTY
-TS
SciTegic.value.DoubleValue
183.300

@<SCITEGIC>MOL_PROPERTY
U+W
SciTegic.value.DoubleValue
191.731

@<SCITEGIC>MOL_PROPERTY
U
SciTegic.value.DoubleValue
269.984

@<SCITEGIC>MOL_PROPERTY
W
SciTegic.value.DoubleValue
-78.253

@<SCITEGIC>MOL_PROPERTY
W(PB)
SciTegic.value.DoubleValue
-84.297

@<SCITEGIC>MOL_PROPERTY
W(SA)
SciTegic.value.DoubleValue
6.044

@<SCITEGIC>MOL_PROPERTY
Valence
SciTegic.value.DoubleValue
151.421

@<SCITEGIC>MOL_PROPERTY
Coulomb
SciTegic.value.DoubleValue
140.714

@<SCITEGIC>MOL_PROPERTY
VdW
SciTegic.value.DoubleValue
-22.151

@<SCITEGIC>MOL_PROPERTY
VdW6
SciTegic.value.DoubleValue
-179.536

@<SCITEGIC>MOL_PROPERTY
VdW12
SciTegic.value.DoubleValue
157.385

@<SCITEGIC>MOL_PROPERTY
Bond
SciTegic.value.DoubleValue
5.015

@<SCITEGIC>MOL_PROPERTY
Angle
SciTegic.value.DoubleValue
14.630

@<SCITEGIC>MOL_PROPERTY
Pdih
SciTegic.value.DoubleValue
131.673

@<SCITEGIC>MOL_PROPERTY
Idih
SciTegic.value.DoubleValue
0.104

@<SCITEGIC>MOL_PROPERTY
Tether
SciTegic.value.DoubleValue
0.000

@<TRIPOS>MOLECULE
CD_guest-s19_fast_vm2_rndm.mol2 : feprocess host+ligand conformer 89
         143         148           2
SMALL
USER_CHARGES
 
@<TRIPOS>ATOM
       1    C1      16.125970   15.107600   21.611032 C.3        1 MOL1         0.2972
       2    H1      15.034347   15.063900   21.503434 H          1 MOL1         0.0751
       3    O1      16.611591   16.462844   21.517824 O.3        1 MOL1        -0.3740
       4    C2      16.528828   14.514216   22.978023 C.3        1 MOL1         0.1003
       5    H2      16.205749   13.465559   22.999078 H          1 MOL1         0.0783
       6    O2      15.860364   15.240006   24.023624 O.3        1 MOL1        -0.5519
       7    H3      15.659168   16.138038   23.665695 H          1 MOL1         0.3769
       8    C3      18.066412   14.543460   23.149269 C.3        1 MOL1         0.1053
       9    H4      18.350743   15.598338   23.234137 H          1 MOL1         0.0783
      10    O3      18.449482   13.838344   24.337891 O.3        1 MOL1        -0.5519
      11    H5      19.377297   14.118106   24.550642 H          1 MOL1         0.3769
      12    C4      18.818638   13.928497   21.933910 C.3        1 MOL1         0.1018
      13    H6      18.781839   12.835914   22.031534 H          1 MOL1         0.0783
      14    C5      18.216404   14.357355   20.552418 C.3        1 MOL1         0.1043
      15    H7      18.556649   15.378835   20.344142 H          1 MOL1         0.0783
      16    O4      16.765282   14.333108   20.583477 O.3        1 MOL1        -0.3740
      17    C6      18.612545   13.461917   19.348424 C.3        1 MOL1         0.0138
      18    H8      19.623321   13.712872   19.012342 H          1 MOL1         0.0794
      19    H9      17.943698   13.696976   18.509328 H          1 MOL1         0.0794
      20    O5      18.532744   12.065527   19.659486 O.3        1 MOL1        -0.5486
      21    H10     18.710409   11.565573   18.833137 H          1 MOL1         0.3769
      22    C7      15.232518   20.212521   20.212236 C.3        1 MOL1         0.2972
      23    H11     14.664113   21.002413   19.704586 H          1 MOL1         0.0751
      24    O6      16.423807   20.736345   20.831851 O.3        1 MOL1        -0.3740
      25    C8      14.367374   19.503903   21.292505 C.3        1 MOL1         0.1003
      26    H12     13.500794   19.071668   20.775502 H          1 MOL1         0.0783
      27    O7      13.896573   20.423955   22.288761 O.3        1 MOL1        -0.5519
      28    H13     14.693684   20.851219   22.693712 H          1 MOL1         0.3769
      29    C9      15.150869   18.340539   21.952622 C.3        1 MOL1         0.1053
      30    H14     15.995548   18.764514   22.513824 H          1 MOL1         0.0783
      31    O8      14.286457   17.622143   22.838647 O.3        1 MOL1        -0.5519
      32    H15     13.801732   18.314109   23.341632 H          1 MOL1         0.3769
      33    C10     15.712410   17.385488   20.870972 C.3        1 MOL1         0.1018
      34    H16     14.871235   16.868213   20.390514 H          1 MOL1         0.0783
      35    C11     16.499329   18.162627   19.784191 C.3        1 MOL1         0.1043
      36    H17     17.376514   18.614653   20.258161 H          1 MOL1         0.0783
      37    O9      15.648043   19.210092   19.256201 O.3        1 MOL1        -0.3740
      38    C12     17.012339   17.294053   18.606490 C.3        1 MOL1         0.0138
      39    H18     18.002648   16.902588   18.869568 H          1 MOL1         0.0794
      40    H19     17.151779   17.941304   17.730401 H          1 MOL1         0.0794
      41    O10     16.136459   16.207476   18.280850 O.3        1 MOL1        -0.5486
      42    H20     16.215640   15.542050   19.003636 H          1 MOL1         0.3769
      43    C13     18.481634   24.166395   21.782307 C.3        1 MOL1         0.2972
      44    H21     18.844861   25.175222   22.017170 H          1 MOL1         0.0751
      45    O11     19.560894   23.222267   21.657378 O.3        1 MOL1        -0.3740
      46    C14     17.535790   23.666546   22.899173 C.3        1 MOL1         0.1003
      47    H22     16.662753   24.331814   22.918607 H          1 MOL1         0.0783
      48    O12     18.188987   23.704032   24.178233 O.3        1 MOL1        -0.5519
      49    H23     19.162923   23.719242   24.005565 H          1 MOL1         0.3769
      50    C15     17.042676   22.236246   22.584848 C.3        1 MOL1         0.1053
      51    H24     17.907788   21.563419   22.627794 H          1 MOL1         0.0783
      52    O13     16.078835   21.845478   23.567561 O.3        1 MOL1        -0.5519
      53    H25     16.485143   22.096212   24.427496 H          1 MOL1         0.3769
      54    C16     16.433048   22.139325   21.163480 C.3        1 MOL1         0.1018
      55    H26     15.421112   22.565140   21.186176 H          1 MOL1         0.0783
      56    C17     17.295971   22.856586   20.081681 C.3        1 MOL1         0.1043
      57    H27     18.175273   22.229869   19.889046 H          1 MOL1         0.0783
      58    O14     17.743102   24.159804   20.542715 O.3        1 MOL1        -0.3740
      59    C18     16.567785   23.039266   18.728882 C.3        1 MOL1         0.0138
      60    H28     16.466128   22.054949   18.252070 H          1 MOL1         0.0794
      61    H29     17.196985   23.655556   18.072663 H          1 MOL1         0.0794
      62    O15     15.275870   23.638535   18.887510 O.3        1 MOL1        -0.5486
      63    H30     14.909729   23.799652   17.990517 H          1 MOL1         0.3769
      64    C19     23.693285   22.920576   21.526011 C.3        1 MOL1         0.2972
      65    H31     24.771044   23.098007   21.419872 H          1 MOL1         0.0751
      66    O16     23.402305   21.533518   21.782455 O.3        1 MOL1        -0.3740
      67    C20     23.138907   23.727723   22.726225 C.3        1 MOL1         0.1003
      68    H32     23.320398   24.791572   22.525414 H          1 MOL1         0.0783
      69    O17     23.814845   23.347850   23.935767 O.3        1 MOL1        -0.5519
      70    H33     24.033763   22.386682   23.850638 H          1 MOL1         0.3769
      71    C21     21.611674   23.518439   22.872524 C.3        1 MOL1         0.1053
      72    H34     21.435689   22.475183   23.167302 H          1 MOL1         0.0783
      73    O18     21.102071   24.394677   23.882228 O.3        1 MOL1        -0.5519
      74    H35     21.739575   24.320957   24.627592 H          1 MOL1         0.3769
      75    C22     20.882842   23.770708   21.529654 C.3        1 MOL1         0.1018
      76    H36     20.869254   24.849433   21.326039 H          1 MOL1         0.0783
      77    C23     21.561169   23.031795   20.345207 C.3        1 MOL1         0.1043
      78    H37     21.423213   21.957754   20.504237 H          1 MOL1         0.0783
      79    O19     22.981466   23.325268   20.334447 O.3        1 MOL1        -0.3740
      80    C24     20.956342   23.353662   18.953573 C.3        1 MOL1         0.0138
      81    H38     20.144626   22.641226   18.757721 H          1 MOL1         0.0794
      82    H39     21.723963   23.180240   18.187680 H          1 MOL1         0.0794
      83    O20     20.449600   24.689649   18.850095 O.3        1 MOL1        -0.5486
      84    H40     19.608581   24.719497   19.361301 H          1 MOL1         0.3769
      85    C25     24.923535   17.683109   21.274996 C.3        1 MOL1         0.2972
      86    H41     25.578759   16.829526   21.058104 H          1 MOL1         0.0751
      87    O21     23.591959   17.252840   21.619336 O.3        1 MOL1        -0.3740
      88    C26     25.498543   18.491340   22.465663 C.3        1 MOL1         0.1003
      89    H42     26.503379   18.828353   22.179715 H          1 MOL1         0.0783
      90    O22     25.593473   17.666929   23.638128 O.3        1 MOL1        -0.5519
      91    H43     24.993540   16.893546   23.494331 H          1 MOL1         0.3769
      92    C27     24.639490   19.745015   22.751772 C.3        1 MOL1         0.1053
      93    H44     23.657299   19.411112   23.114672 H          1 MOL1         0.0783
      94    O23     25.277813   20.548483   23.750390 O.3        1 MOL1        -0.5519
      95    H45     25.539735   19.914066   24.454407 H          1 MOL1         0.3769
      96    C28     24.426225   20.575676   21.463572 C.3        1 MOL1         0.1018
      97    H46     25.375454   21.056001   21.192338 H          1 MOL1         0.0783
      98    C29     23.928081   19.687531   20.288790 C.3        1 MOL1         0.1043
      99    H47     22.930914   19.319399   20.551925 H          1 MOL1         0.0783
     100    O24     24.821333   18.555603   20.127367 O.3        1 MOL1        -0.3740
     101    C30     23.793598   20.410315   18.924367 C.3        1 MOL1         0.0138
     102    H48     22.798511   20.868762   18.869549 H          1 MOL1         0.0794
     103    H49     23.841125   19.659643   18.124132 H          1 MOL1         0.0794
     104    O25     24.792880   21.413859   18.716905 O.3        1 MOL1        -0.5486
     105    H50     24.460511   22.234626   19.146344 H          1 MOL1         0.3769
     106    C31     21.219543   13.768938   21.312822 C.3        1 MOL1         0.2972
     107    H51     20.908085   12.763928   21.000603 H          1 MOL1         0.0751
     108    O26     20.179243   14.409228   22.075761 O.3        1 MOL1        -0.3740
     109    C32     22.505967   13.672920   22.185743 C.3        1 MOL1         0.1003
     110    H52     23.239181   13.103192   21.600477 H          1 MOL1         0.0783
     111    O27     22.252627   12.976873   23.416162 O.3        1 MOL1        -0.5519
     112    H53     21.709722   13.586548   23.985614 H          1 MOL1         0.3769
     113    C33     23.125025   15.060847   22.490248 C.3        1 MOL1         0.1053
     114    H54     22.462566   15.589909   23.183505 H          1 MOL1         0.0783
     115    O28     24.414635   14.892124   23.088923 O.3        1 MOL1        -0.5519
     116    H55     24.283222   14.226165   23.800074 H          1 MOL1         0.3769
     117    C34     23.244549   15.916830   21.211137 C.3        1 MOL1         0.1018
     118    H56     24.007716   15.474770   20.556820 H          1 MOL1         0.0783
     119    C35     21.896697   15.961439   20.449456 C.3        1 MOL1         0.1043
     120    H57     21.140114   16.431842   21.090578 H          1 MOL1         0.0783
     121    O29     21.510030   14.597539   20.161867 O.3        1 MOL1        -0.3740
     122    C36     21.934451   16.758548   19.120502 C.3        1 MOL1         0.0138
     123    H58     21.743792   17.814617   19.344768 H          1 MOL1         0.0794
     124    H59     21.109817   16.414560   18.482341 H          1 MOL1         0.0794
     125    O30     23.180767   16.637654   18.424441 O.3        1 MOL1        -0.5486
     126    H60     23.841346   17.178651   18.916201 H          1 MOL1         0.3769
     127    C1      20.831513   16.057456   25.425740 C.2        1 MOL1         0.6173
     128    O1      20.969209   16.494227   26.552310 O.co2      1 MOL1        -0.6755
     129    O2      21.002664   14.887414   25.128444 O.co2      1 MOL1        -0.6755
     130    C2      20.388079   16.963246   24.334124 C.2        1 MOL1        -0.1504
     131    H1      20.313193   16.509546   23.354514 H          1 MOL1         0.0814
     132    C3      20.056513   18.264320   24.474879 C.2        1 MOL1        -0.1394
     133    H2      20.108900   18.764689   25.441183 H          1 MOL1         0.0817
     134    C4      19.529422   19.079265   23.313385 C.3        1 MOL1        -0.1849
     135    H3      19.116104   20.027206   23.678300 H          1 MOL1         0.0736
     136    H4      18.694241   18.533887   22.852515 H          1 MOL1         0.0736
     137    C5      20.616720   19.359455   22.253057 C.3        1 MOL1        -0.1866
     138    H5      21.213734   20.223889   22.567267 H          1 MOL1         0.0738
     139    H6      21.307041   18.510169   22.190537 H          1 MOL1         0.0738
     140    C6      20.005324   19.606607   20.859935 C.3        1 MOL1        -0.2879
     141    H7      19.259130   20.409085   20.897041 H          1 MOL1         0.0750
     142    H8      20.772928   19.885541   20.131261 H          1 MOL1         0.0750
     143    H9      19.521324   18.695040   20.492711 H          1 MOL1         0.0750
@<TRIPOS>BOND
    1     1     2    1
    2     1     3    1
    3     1     4    1
    4     4     5    1
    5     4     6    1
    6     6     7    1
    7     4     8    1
    8     8     9    1
    9     8    10    1
   10    10    11    1
   11     8    12    1
   12    12    13    1
   13    12    14    1
   14    14    15    1
   15     1    16    1
   16    14    16    1
   17    14    17    1
   18    17    18    1
   19    17    19    1
   20    17    20    1
   21    20    21    1
   22    22    23    1
   23    22    24    1
   24    22    25    1
   25    25    26    1
   26    25    27    1
   27    27    28    1
   28    25    29    1
   29    29    30    1
   30    29    31    1
   31    31    32    1
   32     3    33    1
   33    29    33    1
   34    33    34    1
   35    33    35    1
   36    35    36    1
   37    22    37    1
   38    35    37    1
   39    35    38    1
   40    38    39    1
   41    38    40    1
   42    38    41    1
   43    41    42    1
   44    43    44    1
   45    43    45    1
   46    43    46    1
   47    46    47    1
   48    46    48    1
   49    48    49    1
   50    46    50    1
   51    50    51    1
   52    50    52    1
   53    52    53    1
   54    24    54    1
   55    50    54    1
   56    54    55    1
   57    54    56    1
   58    56    57    1
   59    43    58    1
   60    56    58    1
   61    56    59    1
   62    59    60    1
   63    59    61    1
   64    59    62    1
   65    62    63    1
   66    64    65    1
   67    64    66    1
   68    64    67    1
   69    67    68    1
   70    67    69    1
   71    69    70    1
   72    67    71    1
   73    71    72    1
   74    71    73    1
   75    73    74    1
   76    45    75    1
   77    71    75    1
   78    75    76    1
   79    75    77    1
   80    77    78    1
   81    64    79    1
   82    77    79    1
   83    77    80    1
   84    80    81    1
   85    80    82    1
   86    80    83    1
   87    83    84    1
   88    85    86    1
   89    85    87    1
   90    85    88    1
   91    88    89    1
   92    88    90    1
   93    90    91    1
   94    88    92    1
   95    92    93    1
   96    92    94    1
   97    94    95    1
   98    66    96    1
   99    92    96    1
  100    96    97    1
  101    96    98    1
  102    98    99    1
  103    85   100    1
  104    98   100    1
  105    98   101    1
  106   101   102    1
  107   101   103    1
  108   101   104    1
  109   104   105    1
  110   106   107    1
  111    12   108    1
  112   106   108    1
  113   106   109    1
  114   109   110    1
  115   109   111    1
  116   111   112    1
  117   109   113    1
  118   113   114    1
  119   113   115    1
  120   115   116    1
  121    87   117    1
  122   113   117    1
  123   117   118    1
  124   117   119    1
  125   119   120    1
  126   106   121    1
  127   119   121    1
  128   119   122    1
  129   122   123    1
  130   122   124    1
  131   122   125    1
  132   125   126    1
  133   127   128    1
  134   127   129    2
  135   127   130    1
  136   130   131    1
  137   130   132    2
  138   132   133    1
  139   132   134    1
  140   134   135    1
  141   134   136    1
  142   134   137    1
  143   137   138    1
  144   137   139    1
  145   137   140    1
  146   140   141    1
  147   140   142    1
  148   140   143    1
@<TRIPOS>SUBSTRUCTURE
       1 MOL1            1 RESIDUE      1      MOL     
       2 MOL1          143 RESIDUE      1      MOL     
@<SCITEGIC>MOL_PROPERTY
feprocess Rank
SciTegic.value.IntegerValue
89

@<SCITEGIC>MOL_PROPERTY
Conf_Id
SciTegic.value.IntegerValue
158

@<SCITEGIC>MOL_PROPERTY
Probability
SciTegic.value.DoubleValue
0.00

@<SCITEGIC>MOL_PROPERTY
G
SciTegic.value.DoubleValue
501.204

@<SCITEGIC>MOL_PROPERTY
E
SciTegic.value.DoubleValue
318.667

@<SCITEGIC>MOL_PROPERTY
-TS
SciTegic.value.DoubleValue
182.537

@<SCITEGIC>MOL_PROPERTY
U+W
SciTegic.value.DoubleValue
192.579

@<SCITEGIC>MOL_PROPERTY
U
SciTegic.value.DoubleValue
276.228

@<SCITEGIC>MOL_PROPERTY
W
SciTegic.value.DoubleValue
-83.650

@<SCITEGIC>MOL_PROPERTY
W(PB)
SciTegic.value.DoubleValue
-89.715

@<SCITEGIC>MOL_PROPERTY
W(SA)
SciTegic.value.DoubleValue
6.065

@<SCITEGIC>MOL_PROPERTY
Valence
SciTegic.value.DoubleValue
152.970

@<SCITEGIC>MOL_PROPERTY
Coulomb
SciTegic.value.DoubleValue
147.484

@<SCITEGIC>MOL_PROPERTY
VdW
SciTegic.value.DoubleValue
-24.225

@<SCITEGIC>MOL_PROPERTY
VdW6
SciTegic.value.DoubleValue
-180.525

@<SCITEGIC>MOL_PROPERTY
VdW12
SciTegic.value.DoubleValue
156.300

@<SCITEGIC>MOL_PROPERTY
Bond
SciTegic.value.DoubleValue
5.069

@<SCITEGIC>MOL_PROPERTY
Angle
SciTegic.value.DoubleValue
14.829

@<SCITEGIC>MOL_PROPERTY
Pdih
SciTegic.value.DoubleValue
133.062

@<SCITEGIC>MOL_PROPERTY
Idih
SciTegic.value.DoubleValue
0.010

@<SCITEGIC>MOL_PROPERTY
Tether
SciTegic.value.DoubleValue
0.000

@<TRIPOS>MOLECULE
CD_guest-s19_fast_vm2_rndm.mol2 : feprocess host+ligand conformer 90
         143         148           2
SMALL
USER_CHARGES
 
@<TRIPOS>ATOM
       1    C1      16.190614   15.298124   20.425257 C.3        1 MOL1         0.2972
       2    H1      15.180591   15.220517   20.002424 H          1 MOL1         0.0751
       3    O1      16.405272   16.566084   21.071165 O.3        1 MOL1        -0.3740
       4    C2      16.450316   14.181615   21.469285 C.3        1 MOL1         0.1003
       5    H2      16.348265   13.218576   20.952426 H          1 MOL1         0.0783
       6    O2      15.499288   14.243128   22.544542 O.3        1 MOL1        -0.5519
       7    H3      15.507337   15.170386   22.894142 H          1 MOL1         0.3769
       8    C3      17.894672   14.279577   22.020384 C.3        1 MOL1         0.1053
       9    H4      17.974552   15.206720   22.605215 H          1 MOL1         0.0783
      10    O3      18.165005   13.153826   22.862766 O.3        1 MOL1        -0.5519
      11    H5      17.375754   13.071147   23.442704 H          1 MOL1         0.3769
      12    C4      18.936688   14.342132   20.874623 C.3        1 MOL1         0.1018
      13    H6      19.007864   13.346695   20.417140 H          1 MOL1         0.0783
      14    C5      18.552984   15.390717   19.789692 C.3        1 MOL1         0.1043
      15    H7      18.640893   16.392032   20.230557 H          1 MOL1         0.0783
      16    O4      17.180728   15.164532   19.383002 O.3        1 MOL1        -0.3740
      17    C6      19.436581   15.387493   18.515908 C.3        1 MOL1         0.0138
      18    H8      20.273779   16.078130   18.670963 H          1 MOL1         0.0794
      19    H9      18.846924   15.792227   17.682560 H          1 MOL1         0.0794
      20    O5      19.938698   14.090808   18.174797 O.3        1 MOL1        -0.5486
      21    H10     20.729038   13.937107   18.742587 H          1 MOL1         0.3769
      22    C7      14.759243   20.219659   21.881915 C.3        1 MOL1         0.2972
      23    H11     14.135306   21.100252   22.082496 H          1 MOL1         0.0751
      24    O6      16.154472   20.567442   21.776865 O.3        1 MOL1        -0.3740
      25    C8      14.588563   19.189387   23.023206 C.3        1 MOL1         0.1003
      26    H12     13.537087   18.874043   23.030765 H          1 MOL1         0.0783
      27    O7      14.916683   19.777455   24.291682 O.3        1 MOL1        -0.5519
      28    H13     15.506755   20.550070   24.107472 H          1 MOL1         0.3769
      29    C9      15.460362   17.941559   22.764560 C.3        1 MOL1         0.1053
      30    H14     16.509448   18.244778   22.858171 H          1 MOL1         0.0783
      31    O8      15.164491   16.938929   23.742390 O.3        1 MOL1        -0.5519
      32    H15     15.167324   17.418257   24.601092 H          1 MOL1         0.3769
      33    C10     15.243581   17.369239   21.341375 C.3        1 MOL1         0.1018
      34    H16     14.319129   16.776537   21.339064 H          1 MOL1         0.0783
      35    C11     15.190923   18.462798   20.235121 C.3        1 MOL1         0.1043
      36    H17     16.218013   18.813050   20.074114 H          1 MOL1         0.0783
      37    O9      14.368597   19.585497   20.647215 O.3        1 MOL1        -0.3740
      38    C12     14.668381   17.947065   18.873010 C.3        1 MOL1         0.0138
      39    H18     15.430478   17.290068   18.432553 H          1 MOL1         0.0794
      40    H19     14.547573   18.803865   18.196445 H          1 MOL1         0.0794
      41    O10     13.430811   17.236829   19.003875 O.3        1 MOL1        -0.5486
      42    H20     13.119477   17.011370   18.100085 H          1 MOL1         0.3769
      43    C13     18.522934   24.000071   21.302129 C.3        1 MOL1         0.2972
      44    H21     18.830567   25.032073   21.092038 H          1 MOL1         0.0751
      45    O11     19.663391   23.169749   21.614011 O.3        1 MOL1        -0.3740
      46    C14     17.542690   23.993405   22.504902 C.3        1 MOL1         0.1003
      47    H22     16.668801   24.586916   22.207302 H          1 MOL1         0.0783
      48    O12     18.132801   24.610282   23.658658 O.3        1 MOL1        -0.5519
      49    H23     18.770112   23.960812   24.057371 H          1 MOL1         0.3769
      50    C15     17.054222   22.552350   22.792633 C.3        1 MOL1         0.1053
      51    H24     17.922889   21.931496   23.039798 H          1 MOL1         0.0783
      52    O13     16.114865   22.535156   23.875138 O.3        1 MOL1        -0.5519
      53    H25     16.652766   22.719500   24.689988 H          1 MOL1         0.3769
      54    C16     16.424821   21.956653   21.515154 C.3        1 MOL1         0.1018
      55    H26     15.511534   22.516595   21.273980 H          1 MOL1         0.0783
      56    C17     17.410354   22.050657   20.318281 C.3        1 MOL1         0.1043
      57    H27     18.285632   21.427207   20.544930 H          1 MOL1         0.0783
      58    O14     17.833267   23.431627   20.163382 O.3        1 MOL1        -0.3740
      59    C18     16.829037   21.554001   18.968112 C.3        1 MOL1         0.0138
      60    H28     17.031784   20.479740   18.877025 H          1 MOL1         0.0794
      61    H29     17.368574   22.048052   18.149523 H          1 MOL1         0.0794
      62    O15     15.421933   21.789784   18.835407 O.3        1 MOL1        -0.5486
      63    H30     14.961944   21.147487   19.425026 H          1 MOL1         0.3769
      64    C19     23.686935   22.672382   20.589456 C.3        1 MOL1         0.2972
      65    H31     24.709993   22.781455   20.209291 H          1 MOL1         0.0751
      66    O16     23.423103   21.315836   21.012514 O.3        1 MOL1        -0.3740
      67    C20     23.410994   23.666269   21.747793 C.3        1 MOL1         0.1003
      68    H32     23.484977   24.678074   21.328991 H          1 MOL1         0.0783
      69    O17     24.391806   23.534437   22.786848 O.3        1 MOL1        -0.5519
      70    H33     24.167580   22.708561   23.282833 H          1 MOL1         0.3769
      71    C21     21.960330   23.477667   22.267772 C.3        1 MOL1         0.1053
      72    H34     21.873209   22.466832   22.686431 H          1 MOL1         0.0783
      73    O18     21.658004   24.440448   23.282654 O.3        1 MOL1        -0.5519
      74    H35     21.012485   23.987345   23.887392 H          1 MOL1         0.3769
      75    C22     20.941137   23.613550   21.102323 C.3        1 MOL1         0.1018
      76    H36     20.912430   24.671220   20.810062 H          1 MOL1         0.0783
      77    C23     21.347409   22.746558   19.869374 C.3        1 MOL1         0.1043
      78    H37     21.219645   21.691403   20.135447 H          1 MOL1         0.0783
      79    O19     22.741080   22.986250   19.546652 O.3        1 MOL1        -0.3740
      80    C24     20.526088   22.979463   18.576571 C.3        1 MOL1         0.0138
      81    H38     19.649714   22.321649   18.598017 H          1 MOL1         0.0794
      82    H39     21.133167   22.663604   17.717672 H          1 MOL1         0.0794
      83    O20     20.108552   24.337827   18.405723 O.3        1 MOL1        -0.5486
      84    H40     19.241194   24.418975   18.863410 H          1 MOL1         0.3769
      85    C25     24.896178   17.721419   22.327019 C.3        1 MOL1         0.2972
      86    H41     25.467194   16.857739   22.691974 H          1 MOL1         0.0751
      87    O21     23.576677   17.345163   21.892490 O.3        1 MOL1        -0.3740
      88    C26     24.753311   18.775292   23.447307 C.3        1 MOL1         0.1003
      89    H42     25.761735   19.127857   23.700008 H          1 MOL1         0.0783
      90    O22     24.147715   18.200508   24.616568 O.3        1 MOL1        -0.5519
      91    H43     23.777923   17.323889   24.348152 H          1 MOL1         0.3769
      92    C27     23.933026   19.986188   22.948555 C.3        1 MOL1         0.1053
      93    H44     22.905966   19.649466   22.763294 H          1 MOL1         0.0783
      94    O23     23.932428   20.983721   23.972176 O.3        1 MOL1        -0.5519
      95    H45     23.682565   20.498528   24.790528 H          1 MOL1         0.3769
      96    C28     24.492272   20.558769   21.617408 C.3        1 MOL1         0.1018
      97    H46     25.369265   21.179999   21.838202 H          1 MOL1         0.0783
      98    C29     24.859649   19.449139   20.587624 C.3        1 MOL1         0.1043
      99    H47     23.919199   19.069121   20.169104 H          1 MOL1         0.0783
     100    O24     25.567866   18.349033   21.215943 O.3        1 MOL1        -0.3740
     101    C30     25.708608   19.961258   19.398930 C.3        1 MOL1         0.0138
     102    H48     25.108443   20.673424   18.816570 H          1 MOL1         0.0794
     103    H49     25.928789   19.111281   18.739310 H          1 MOL1         0.0794
     104    O25     26.931741   20.578429   19.821964 O.3        1 MOL1        -0.5486
     105    H50     26.712715   21.404941   20.299533 H          1 MOL1         0.3769
     106    C31     21.310205   13.889516   21.284122 C.3        1 MOL1         0.2972
     107    H51     21.003313   12.859446   21.061940 H          1 MOL1         0.0751
     108    O26     20.171659   14.745116   21.493941 O.3        1 MOL1        -0.3740
     109    C32     22.145621   13.918288   22.589193 C.3        1 MOL1         0.1003
     110    H52     23.020868   13.272854   22.439407 H          1 MOL1         0.0783
     111    O27     21.366163   13.417794   23.686857 O.3        1 MOL1        -0.5519
     112    H53     20.427414   13.656695   23.494013 H          1 MOL1         0.3769
     113    C33     22.649448   15.350102   22.893203 C.3        1 MOL1         0.1053
     114    H54     21.779003   15.980076   23.121285 H          1 MOL1         0.0783
     115    O28     23.533408   15.316553   24.018008 O.3        1 MOL1        -0.5519
     116    H55     23.085869   14.736935   24.674698 H          1 MOL1         0.3769
     117    C34     23.368404   15.943636   21.657811 C.3        1 MOL1         0.1018
     118    H56     24.314773   15.409371   21.500538 H          1 MOL1         0.0783
     119    C35     22.499729   15.822174   20.379709 C.3        1 MOL1         0.1043
     120    H57     21.604482   16.441805   20.518942 H          1 MOL1         0.0783
     121    O29     22.103594   14.437712   20.206191 O.3        1 MOL1        -0.3740
     122    C36     23.198113   16.319538   19.086691 C.3        1 MOL1         0.0138
     123    H58     22.990627   17.391430   18.974434 H          1 MOL1         0.0794
     124    H59     22.743401   15.815539   18.223488 H          1 MOL1         0.0794
     125    O30     24.615482   16.106333   19.091167 O.3        1 MOL1        -0.5486
     126    H60     24.999999   16.713762   19.764278 H          1 MOL1         0.3769
     127    C1      19.151161   22.001570   25.309538 C.2        1 MOL1         0.6173
     128    O1      19.950696   22.800737   24.854839 O.co2      1 MOL1        -0.6755
     129    O2      18.151360   22.350536   25.907396 O.co2      1 MOL1        -0.6755
     130    C2      19.263224   20.559805   24.955771 C.2        1 MOL1        -0.1504
     131    H1      18.470124   19.916649   25.329632 H          1 MOL1         0.0814
     132    C3      20.249081   20.048619   24.184959 C.2        1 MOL1        -0.1394
     133    H2      21.036985   20.690378   23.797144 H          1 MOL1         0.0817
     134    C4      20.330297   18.592542   23.775324 C.3        1 MOL1        -0.1849
     135    H3      19.854604   17.964462   24.540105 H          1 MOL1         0.0736
     136    H4      21.378539   18.273997   23.730774 H          1 MOL1         0.0736
     137    C5      19.648699   18.331112   22.414137 C.3        1 MOL1        -0.1866
     138    H5      19.652424   17.253277   22.213685 H          1 MOL1         0.0738
     139    H6      18.598615   18.639703   22.470213 H          1 MOL1         0.0738
     140    C6      20.326522   19.074725   21.245633 C.3        1 MOL1        -0.2879
     141    H7      21.382164   18.793499   21.155079 H          1 MOL1         0.0750
     142    H8      19.826091   18.844683   20.296980 H          1 MOL1         0.0750
     143    H9      20.273231   20.157981   21.404328 H          1 MOL1         0.0750
@<TRIPOS>BOND
    1     1     2    1
    2     1     3    1
    3     1     4    1
    4     4     5    1
    5     4     6    1
    6     6     7    1
    7     4     8    1
    8     8     9    1
    9     8    10    1
   10    10    11    1
   11     8    12    1
   12    12    13    1
   13    12    14    1
   14    14    15    1
   15     1    16    1
   16    14    16    1
   17    14    17    1
   18    17    18    1
   19    17    19    1
   20    17    20    1
   21    20    21    1
   22    22    23    1
   23    22    24    1
   24    22    25    1
   25    25    26    1
   26    25    27    1
   27    27    28    1
   28    25    29    1
   29    29    30    1
   30    29    31    1
   31    31    32    1
   32     3    33    1
   33    29    33    1
   34    33    34    1
   35    33    35    1
   36    35    36    1
   37    22    37    1
   38    35    37    1
   39    35    38    1
   40    38    39    1
   41    38    40    1
   42    38    41    1
   43    41    42    1
   44    43    44    1
   45    43    45    1
   46    43    46    1
   47    46    47    1
   48    46    48    1
   49    48    49    1
   50    46    50    1
   51    50    51    1
   52    50    52    1
   53    52    53    1
   54    24    54    1
   55    50    54    1
   56    54    55    1
   57    54    56    1
   58    56    57    1
   59    43    58    1
   60    56    58    1
   61    56    59    1
   62    59    60    1
   63    59    61    1
   64    59    62    1
   65    62    63    1
   66    64    65    1
   67    64    66    1
   68    64    67    1
   69    67    68    1
   70    67    69    1
   71    69    70    1
   72    67    71    1
   73    71    72    1
   74    71    73    1
   75    73    74    1
   76    45    75    1
   77    71    75    1
   78    75    76    1
   79    75    77    1
   80    77    78    1
   81    64    79    1
   82    77    79    1
   83    77    80    1
   84    80    81    1
   85    80    82    1
   86    80    83    1
   87    83    84    1
   88    85    86    1
   89    85    87    1
   90    85    88    1
   91    88    89    1
   92    88    90    1
   93    90    91    1
   94    88    92    1
   95    92    93    1
   96    92    94    1
   97    94    95    1
   98    66    96    1
   99    92    96    1
  100    96    97    1
  101    96    98    1
  102    98    99    1
  103    85   100    1
  104    98   100    1
  105    98   101    1
  106   101   102    1
  107   101   103    1
  108   101   104    1
  109   104   105    1
  110   106   107    1
  111    12   108    1
  112   106   108    1
  113   106   109    1
  114   109   110    1
  115   109   111    1
  116   111   112    1
  117   109   113    1
  118   113   114    1
  119   113   115    1
  120   115   116    1
  121    87   117    1
  122   113   117    1
  123   117   118    1
  124   117   119    1
  125   119   120    1
  126   106   121    1
  127   119   121    1
  128   119   122    1
  129   122   123    1
  130   122   124    1
  131   122   125    1
  132   125   126    1
  133   127   128    1
  134   127   129    2
  135   127   130    1
  136   130   131    1
  137   130   132    2
  138   132   133    1
  139   132   134    1
  140   134   135    1
  141   134   136    1
  142   134   137    1
  143   137   138    1
  144   137   139    1
  145   137   140    1
  146   140   141    1
  147   140   142    1
  148   140   143    1
@<TRIPOS>SUBSTRUCTURE
       1 MOL1            1 RESIDUE      1      MOL     
       2 MOL1          143 RESIDUE      1      MOL     
@<SCITEGIC>MOL_PROPERTY
feprocess Rank
SciTegic.value.IntegerValue
90

@<SCITEGIC>MOL_PROPERTY
Conf_Id
SciTegic.value.IntegerValue
911

@<SCITEGIC>MOL_PROPERTY
Probability
SciTegic.value.DoubleValue
0.00

@<SCITEGIC>MOL_PROPERTY
G
SciTegic.value.DoubleValue
501.211

@<SCITEGIC>MOL_PROPERTY
E
SciTegic.value.DoubleValue
317.551

@<SCITEGIC>MOL_PROPERTY
-TS
SciTegic.value.DoubleValue
183.660

@<SCITEGIC>MOL_PROPERTY
U+W
SciTegic.value.DoubleValue
191.463

@<SCITEGIC>MOL_PROPERTY
U
SciTegic.value.DoubleValue
265.572

@<SCITEGIC>MOL_PROPERTY
W
SciTegic.value.DoubleValue
-74.109

@<SCITEGIC>MOL_PROPERTY
W(PB)
SciTegic.value.DoubleValue
-80.066

@<SCITEGIC>MOL_PROPERTY
W(SA)
SciTegic.value.DoubleValue
5.957

@<SCITEGIC>MOL_PROPERTY
Valence
SciTegic.value.DoubleValue
152.697

@<SCITEGIC>MOL_PROPERTY
Coulomb
SciTegic.value.DoubleValue
136.612

@<SCITEGIC>MOL_PROPERTY
VdW
SciTegic.value.DoubleValue
-23.736

@<SCITEGIC>MOL_PROPERTY
VdW6
SciTegic.value.DoubleValue
-183.215

@<SCITEGIC>MOL_PROPERTY
VdW12
SciTegic.value.DoubleValue
159.479

@<SCITEGIC>MOL_PROPERTY
Bond
SciTegic.value.DoubleValue
5.070

@<SCITEGIC>MOL_PROPERTY
Angle
SciTegic.value.DoubleValue
14.980

@<SCITEGIC>MOL_PROPERTY
Pdih
SciTegic.value.DoubleValue
132.578

@<SCITEGIC>MOL_PROPERTY
Idih
SciTegic.value.DoubleValue
0.069

@<SCITEGIC>MOL_PROPERTY
Tether
SciTegic.value.DoubleValue
0.000

@<TRIPOS>MOLECULE
CD_guest-s19_fast_vm2_rndm.mol2 : feprocess host+ligand conformer 91
         143         148           2
SMALL
USER_CHARGES
 
@<TRIPOS>ATOM
       1    C1      16.677024   15.767105   22.051974 C.3        1 MOL1         0.2972
       2    H1      15.626667   15.654924   22.338413 H          1 MOL1         0.0751
       3    O1      16.972917   17.118402   21.640734 O.3        1 MOL1        -0.3740
       4    C2      17.569454   15.422792   23.270270 C.3        1 MOL1         0.1003
       5    H2      17.307103   14.405126   23.587419 H          1 MOL1         0.0783
       6    O2      17.321123   16.329330   24.355261 O.3        1 MOL1        -0.5519
       7    H3      17.416147   17.241295   23.996019 H          1 MOL1         0.3769
       8    C3      19.068747   15.430440   22.895915 C.3        1 MOL1         0.1053
       9    H4      19.361945   16.454624   22.638910 H          1 MOL1         0.0783
      10    O3      19.825466   14.974919   24.021109 O.3        1 MOL1        -0.5519
      11    H5      19.498234   15.507488   24.779563 H          1 MOL1         0.3769
      12    C4      19.329388   14.535787   21.661711 C.3        1 MOL1         0.1018
      13    H6      19.199222   13.485044   21.954231 H          1 MOL1         0.0783
      14    C5      18.362108   14.880459   20.497104 C.3        1 MOL1         0.1043
      15    H7      18.611864   15.885808   20.138360 H          1 MOL1         0.0783
      16    O4      16.991296   14.868123   20.965321 O.3        1 MOL1        -0.3740
      17    C6      18.474452   13.912714   19.294401 C.3        1 MOL1         0.0138
      18    H8      19.434339   14.092202   18.791155 H          1 MOL1         0.0794
      19    H9      17.679534   14.151206   18.575226 H          1 MOL1         0.0794
      20    O5      18.386976   12.539931   19.697067 O.3        1 MOL1        -0.5486
      21    H10     18.386030   11.990361   18.883180 H          1 MOL1         0.3769
      22    C7      14.881872   20.513654   20.388694 C.3        1 MOL1         0.2972
      23    H11     14.242571   21.224796   19.850071 H          1 MOL1         0.0751
      24    O6      15.667266   21.183580   21.389885 O.3        1 MOL1        -0.3740
      25    C8      14.007714   19.446367   21.096288 C.3        1 MOL1         0.1003
      26    H12     13.371419   18.998012   20.322351 H          1 MOL1         0.0783
      27    O7      13.175691   20.047439   22.101584 O.3        1 MOL1        -0.5519
      28    H13     13.782771   20.311644   22.845459 H          1 MOL1         0.3769
      29    C9      14.842094   18.311686   21.743093 C.3        1 MOL1         0.1053
      30    H14     15.314495   18.708291   22.646912 H          1 MOL1         0.0783
      31    O8      13.935057   17.263608   22.098565 O.3        1 MOL1        -0.5519
      32    H15     13.219852   17.704850   22.608024 H          1 MOL1         0.3769
      33    C10     15.978933   17.780366   20.824263 C.3        1 MOL1         0.1018
      34    H16     15.548193   17.094794   20.083775 H          1 MOL1         0.0783
      35    C11     16.725611   18.930657   20.095345 C.3        1 MOL1         0.1043
      36    H17     17.312466   19.486983   20.836403 H          1 MOL1         0.0783
      37    O9      15.768752   19.823306   19.479820 O.3        1 MOL1        -0.3740
      38    C12     17.723984   18.445504   19.015236 C.3        1 MOL1         0.0138
      39    H18     18.616661   18.054213   19.520445 H          1 MOL1         0.0794
      40    H19     18.045867   19.311194   18.421404 H          1 MOL1         0.0794
      41    O10     17.171169   17.439119   18.157701 O.3        1 MOL1        -0.5486
      42    H20     16.930927   16.670875   18.716870 H          1 MOL1         0.3769
      43    C13     18.216662   24.369980   21.631576 C.3        1 MOL1         0.2972
      44    H21     18.758420   25.324049   21.653039 H          1 MOL1         0.0751
      45    O11     19.089235   23.248970   21.881116 O.3        1 MOL1        -0.3740
      46    C14     17.113792   24.377756   22.709160 C.3        1 MOL1         0.1003
      47    H22     16.402632   25.176303   22.462077 H          1 MOL1         0.0783
      48    O12     17.708899   24.644107   23.990783 O.3        1 MOL1        -0.5519
      49    H23     18.566797   24.153653   24.018835 H          1 MOL1         0.3769
      50    C15     16.349317   23.032482   22.699169 C.3        1 MOL1         0.1053
      51    H24     17.042049   22.269581   23.075152 H          1 MOL1         0.0783
      52    O13     15.208988   23.102395   23.562902 O.3        1 MOL1        -0.5519
      53    H25     15.006888   22.163719   23.818522 H          1 MOL1         0.3769
      54    C16     15.882174   22.608490   21.275225 C.3        1 MOL1         0.1018
      55    H26     14.941174   23.129496   21.057208 H          1 MOL1         0.0783
      56    C17     16.929216   22.900877   20.148427 C.3        1 MOL1         0.1043
      57    H27     17.683349   22.104100   20.177877 H          1 MOL1         0.0783
      58    O14     17.582988   24.178918   20.356573 O.3        1 MOL1        -0.3740
      59    C18     16.347981   22.950656   18.711316 C.3        1 MOL1         0.0138
      60    H28     16.150375   21.933507   18.356918 H          1 MOL1         0.0794
      61    H29     17.113429   23.369553   18.044184 H          1 MOL1         0.0794
      62    O15     15.151006   23.734497   18.635796 O.3        1 MOL1        -0.5486
      63    H30     14.889495   23.789324   17.690798 H          1 MOL1         0.3769
      64    C19     23.196790   22.368298   21.772920 C.3        1 MOL1         0.2972
      65    H31     24.280340   22.520368   21.681081 H          1 MOL1         0.0751
      66    O16     22.884179   20.967788   21.914356 O.3        1 MOL1        -0.3740
      67    C20     22.683518   23.132996   23.020153 C.3        1 MOL1         0.1003
      68    H32     22.984070   24.182335   22.903371 H          1 MOL1         0.0783
      69    O17     23.281086   22.602865   24.213810 O.3        1 MOL1        -0.5519
      70    H33     23.746542   21.773147   23.949181 H          1 MOL1         0.3769
      71    C21     21.141630   23.090597   23.119887 C.3        1 MOL1         0.1053
      72    H34     20.842483   22.057938   23.338511 H          1 MOL1         0.0783
      73    O18     20.707634   23.957533   24.173024 O.3        1 MOL1        -0.5519
      74    H35     21.280228   23.729504   24.938967 H          1 MOL1         0.3769
      75    C22     20.498724   23.519674   21.780083 C.3        1 MOL1         0.1018
      76    H36     20.705421   24.586276   21.621072 H          1 MOL1         0.0783
      77    C23     21.076788   22.703754   20.594767 C.3        1 MOL1         0.1043
      78    H37     20.815176   21.650754   20.754894 H          1 MOL1         0.0783
      79    O19     22.518992   22.850239   20.590411 O.3        1 MOL1        -0.3740
      80    C24     20.538086   23.104616   19.196485 C.3        1 MOL1         0.0138
      81    H38     19.605148   22.557900   19.011607 H          1 MOL1         0.0794
      82    H39     21.254876   22.772699   18.433967 H          1 MOL1         0.0794
      83    O20     20.302664   24.510583   19.064836 O.3        1 MOL1        -0.5486
      84    H40     19.398452   24.679207   19.416715 H          1 MOL1         0.3769
      85    C25     25.040135   17.428204   20.967509 C.3        1 MOL1         0.2972
      86    H41     25.792796   16.808255   20.463487 H          1 MOL1         0.0751
      87    O21     24.182735   16.615521   21.790827 O.3        1 MOL1        -0.3740
      88    C26     25.745019   18.469913   21.881947 C.3        1 MOL1         0.1003
      89    H42     26.469105   19.012405   21.260196 H          1 MOL1         0.0783
      90    O22     26.439970   17.806586   22.947847 O.3        1 MOL1        -0.5519
      91    H43     25.817551   17.124603   23.290261 H          1 MOL1         0.3769
      92    C27     24.748897   19.505272   22.463279 C.3        1 MOL1         0.1053
      93    H44     24.092988   18.988780   23.176419 H          1 MOL1         0.0783
      94    O23     25.473244   20.545251   23.129499 O.3        1 MOL1        -0.5519
      95    H45     26.135419   20.081702   23.688931 H          1 MOL1         0.3769
      96    C28     23.874048   20.096348   21.333525 C.3        1 MOL1         0.1018
      97    H46     24.522787   20.640506   20.633450 H          1 MOL1         0.0783
      98    C29     23.172891   18.961512   20.552044 C.3        1 MOL1         0.1043
      99    H47     22.546150   18.381240   21.242492 H          1 MOL1         0.0783
     100    O24     24.216153   18.124538   20.003493 O.3        1 MOL1        -0.3740
     101    C30     22.271473   19.442440   19.388352 C.3        1 MOL1         0.0138
     102    H48     21.298516   19.736001   19.801393 H          1 MOL1         0.0794
     103    H49     22.088691   18.595405   18.713924 H          1 MOL1         0.0794
     104    O25     22.841901   20.537046   18.660707 O.3        1 MOL1        -0.5486
     105    H50     22.869381   21.312670   19.267622 H          1 MOL1         0.3769
     106    C31     21.495662   13.646291   20.960209 C.3        1 MOL1         0.2972
     107    H51     20.894549   12.769047   20.688709 H          1 MOL1         0.0751
     108    O26     20.668088   14.805887   21.197491 O.3        1 MOL1        -0.3740
     109    C32     22.383865   13.354132   22.192188 C.3        1 MOL1         0.1003
     110    H52     23.106597   12.583188   21.894146 H          1 MOL1         0.0783
     111    O27     21.618386   12.864336   23.302767 O.3        1 MOL1        -0.5519
     112    H53     20.992096   13.587475   23.559292 H          1 MOL1         0.3769
     113    C33     23.176642   14.621286   22.583781 C.3        1 MOL1         0.1053
     114    H54     22.456163   15.367852   22.946249 H          1 MOL1         0.0783
     115    O28     24.090837   14.289568   23.634688 O.3        1 MOL1        -0.5519
     116    H55     23.561738   13.777140   24.284993 H          1 MOL1         0.3769
     117    C34     23.949668   15.241961   21.384493 C.3        1 MOL1         0.1018
     118    H56     24.903079   14.707267   21.289503 H          1 MOL1         0.0783
     119    C35     23.175493   15.177119   20.017233 C.3        1 MOL1         0.1043
     120    H57     22.487812   16.031367   19.968372 H          1 MOL1         0.0783
     121    O29     22.404727   13.956150   19.894534 O.3        1 MOL1        -0.3740
     122    C36     24.078991   15.206748   18.753798 C.3        1 MOL1         0.0138
     123    H58     24.445056   16.222289   18.572845 H          1 MOL1         0.0794
     124    H59     23.461400   14.942565   17.884718 H          1 MOL1         0.0794
     125    O30     25.187730   14.304533   18.856672 O.3        1 MOL1        -0.5486
     126    H60     25.657172   14.309740   17.993847 H          1 MOL1         0.3769
     127    C1      15.627113   19.967368   25.271601 C.2        1 MOL1         0.6173
     128    O1      15.190717   19.831749   26.397952 O.co2      1 MOL1        -0.6755
     129    O2      14.959019   20.410342   24.351138 O.co2      1 MOL1        -0.6755
     130    C2      17.049148   19.577109   25.038644 C.2        1 MOL1        -0.1504
     131    H1      17.582232   19.211758   25.912190 H          1 MOL1         0.0814
     132    C3      17.660338   19.670534   23.834020 C.2        1 MOL1        -0.1394
     133    H2      17.098729   20.041424   22.987135 H          1 MOL1         0.0817
     134    C4      19.099357   19.330303   23.493899 C.3        1 MOL1        -0.1849
     135    H3      19.592258   20.237866   23.126478 H          1 MOL1         0.0736
     136    H4      19.108995   18.631871   22.649606 H          1 MOL1         0.0736
     137    C5      19.931796   18.746880   24.656000 C.3        1 MOL1        -0.1866
     138    H5      19.970894   19.471011   25.481229 H          1 MOL1         0.0738
     139    H6      19.455626   17.839598   25.047445 H          1 MOL1         0.0738
     140    C6      21.368039   18.415979   24.204435 C.3        1 MOL1        -0.2879
     141    H7      21.369468   17.684683   23.386147 H          1 MOL1         0.0750
     142    H8      21.879399   19.322761   23.859390 H          1 MOL1         0.0750
     143    H9      21.948197   17.994652   25.035244 H          1 MOL1         0.0750
@<TRIPOS>BOND
    1     1     2    1
    2     1     3    1
    3     1     4    1
    4     4     5    1
    5     4     6    1
    6     6     7    1
    7     4     8    1
    8     8     9    1
    9     8    10    1
   10    10    11    1
   11     8    12    1
   12    12    13    1
   13    12    14    1
   14    14    15    1
   15     1    16    1
   16    14    16    1
   17    14    17    1
   18    17    18    1
   19    17    19    1
   20    17    20    1
   21    20    21    1
   22    22    23    1
   23    22    24    1
   24    22    25    1
   25    25    26    1
   26    25    27    1
   27    27    28    1
   28    25    29    1
   29    29    30    1
   30    29    31    1
   31    31    32    1
   32     3    33    1
   33    29    33    1
   34    33    34    1
   35    33    35    1
   36    35    36    1
   37    22    37    1
   38    35    37    1
   39    35    38    1
   40    38    39    1
   41    38    40    1
   42    38    41    1
   43    41    42    1
   44    43    44    1
   45    43    45    1
   46    43    46    1
   47    46    47    1
   48    46    48    1
   49    48    49    1
   50    46    50    1
   51    50    51    1
   52    50    52    1
   53    52    53    1
   54    24    54    1
   55    50    54    1
   56    54    55    1
   57    54    56    1
   58    56    57    1
   59    43    58    1
   60    56    58    1
   61    56    59    1
   62    59    60    1
   63    59    61    1
   64    59    62    1
   65    62    63    1
   66    64    65    1
   67    64    66    1
   68    64    67    1
   69    67    68    1
   70    67    69    1
   71    69    70    1
   72    67    71    1
   73    71    72    1
   74    71    73    1
   75    73    74    1
   76    45    75    1
   77    71    75    1
   78    75    76    1
   79    75    77    1
   80    77    78    1
   81    64    79    1
   82    77    79    1
   83    77    80    1
   84    80    81    1
   85    80    82    1
   86    80    83    1
   87    83    84    1
   88    85    86    1
   89    85    87    1
   90    85    88    1
   91    88    89    1
   92    88    90    1
   93    90    91    1
   94    88    92    1
   95    92    93    1
   96    92    94    1
   97    94    95    1
   98    66    96    1
   99    92    96    1
  100    96    97    1
  101    96    98    1
  102    98    99    1
  103    85   100    1
  104    98   100    1
  105    98   101    1
  106   101   102    1
  107   101   103    1
  108   101   104    1
  109   104   105    1
  110   106   107    1
  111    12   108    1
  112   106   108    1
  113   106   109    1
  114   109   110    1
  115   109   111    1
  116   111   112    1
  117   109   113    1
  118   113   114    1
  119   113   115    1
  120   115   116    1
  121    87   117    1
  122   113   117    1
  123   117   118    1
  124   117   119    1
  125   119   120    1
  126   106   121    1
  127   119   121    1
  128   119   122    1
  129   122   123    1
  130   122   124    1
  131   122   125    1
  132   125   126    1
  133   127   128    1
  134   127   129    2
  135   127   130    1
  136   130   131    1
  137   130   132    2
  138   132   133    1
  139   132   134    1
  140   134   135    1
  141   134   136    1
  142   134   137    1
  143   137   138    1
  144   137   139    1
  145   137   140    1
  146   140   141    1
  147   140   142    1
  148   140   143    1
@<TRIPOS>SUBSTRUCTURE
       1 MOL1            1 RESIDUE      1      MOL     
       2 MOL1          143 RESIDUE      1      MOL     
@<SCITEGIC>MOL_PROPERTY
feprocess Rank
SciTegic.value.IntegerValue
91

@<SCITEGIC>MOL_PROPERTY
Conf_Id
SciTegic.value.IntegerValue
829

@<SCITEGIC>MOL_PROPERTY
Probability
SciTegic.value.DoubleValue
0.00

@<SCITEGIC>MOL_PROPERTY
G
SciTegic.value.DoubleValue
501.266

@<SCITEGIC>MOL_PROPERTY
E
SciTegic.value.DoubleValue
319.289

@<SCITEGIC>MOL_PROPERTY
-TS
SciTegic.value.DoubleValue
181.977

@<SCITEGIC>MOL_PROPERTY
U+W
SciTegic.value.DoubleValue
193.201

@<SCITEGIC>MOL_PROPERTY
U
SciTegic.value.DoubleValue
277.431

@<SCITEGIC>MOL_PROPERTY
W
SciTegic.value.DoubleValue
-84.230

@<SCITEGIC>MOL_PROPERTY
W(PB)
SciTegic.value.DoubleValue
-90.328

@<SCITEGIC>MOL_PROPERTY
W(SA)
SciTegic.value.DoubleValue
6.098

@<SCITEGIC>MOL_PROPERTY
Valence
SciTegic.value.DoubleValue
145.584

@<SCITEGIC>MOL_PROPERTY
Coulomb
SciTegic.value.DoubleValue
153.514

@<SCITEGIC>MOL_PROPERTY
VdW
SciTegic.value.DoubleValue
-21.668

@<SCITEGIC>MOL_PROPERTY
VdW6
SciTegic.value.DoubleValue
-176.157

@<SCITEGIC>MOL_PROPERTY
VdW12
SciTegic.value.DoubleValue
154.489

@<SCITEGIC>MOL_PROPERTY
Bond
SciTegic.value.DoubleValue
5.155

@<SCITEGIC>MOL_PROPERTY
Angle
SciTegic.value.DoubleValue
16.472

@<SCITEGIC>MOL_PROPERTY
Pdih
SciTegic.value.DoubleValue
123.956

@<SCITEGIC>MOL_PROPERTY
Idih
SciTegic.value.DoubleValue
0.001

@<SCITEGIC>MOL_PROPERTY
Tether
SciTegic.value.DoubleValue
0.000

@<TRIPOS>MOLECULE
CD_guest-s19_fast_vm2_rndm.mol2 : feprocess host+ligand conformer 92
         143         148           2
SMALL
USER_CHARGES
 
@<TRIPOS>ATOM
       1    C1      16.223744   15.238224   21.186731 C.3        1 MOL1         0.2972
       2    H1      15.180216   14.993795   20.950354 H          1 MOL1         0.0751
       3    O1      16.392300   16.648432   21.418345 O.3        1 MOL1        -0.3740
       4    C2      16.652350   14.503547   22.483288 C.3        1 MOL1         0.1003
       5    H2      16.515426   13.427210   22.316654 H          1 MOL1         0.0783
       6    O2      15.830820   14.923243   23.583923 O.3        1 MOL1        -0.5519
       7    H3      15.588496   15.864039   23.407018 H          1 MOL1         0.3769
       8    C3      18.146888   14.754083   22.799368 C.3        1 MOL1         0.1053
       9    H4      18.270863   15.816567   23.048651 H          1 MOL1         0.0783
      10    O3      18.546562   13.943724   23.909377 O.3        1 MOL1        -0.5519
      11    H5      17.831945   14.055374   24.575418 H          1 MOL1         0.3769
      12    C4      19.021693   14.436040   21.563746 C.3        1 MOL1         0.1018
      13    H6      18.996333   13.353684   21.380081 H          1 MOL1         0.0783
      14    C5      18.504164   15.173010   20.300610 C.3        1 MOL1         0.1043
      15    H7      18.608758   16.252831   20.470279 H          1 MOL1         0.0783
      16    O4      17.103474   14.846151   20.108266 O.3        1 MOL1        -0.3740
      17    C6      19.275208   14.836508   18.996916 C.3        1 MOL1         0.0138
      18    H8      20.111859   15.538888   18.896991 H          1 MOL1         0.0794
      19    H9      18.610847   15.013089   18.140527 H          1 MOL1         0.0794
      20    O5      19.770996   13.492546   18.962318 O.3        1 MOL1        -0.5486
      21    H10     20.527124   13.444239   19.592847 H          1 MOL1         0.3769
      22    C7      14.897124   20.394606   20.401708 C.3        1 MOL1         0.2972
      23    H11     14.332712   21.240238   19.987834 H          1 MOL1         0.0751
      24    O6      16.093621   20.828555   21.075898 O.3        1 MOL1        -0.3740
      25    C8      14.040695   19.590428   21.413477 C.3        1 MOL1         0.1003
      26    H12     13.165236   19.209438   20.871807 H          1 MOL1         0.0783
      27    O7      13.597771   20.422088   22.497911 O.3        1 MOL1        -0.5519
      28    H13     14.396537   20.877968   22.867404 H          1 MOL1         0.3769
      29    C9      14.835160   18.375240   21.953358 C.3        1 MOL1         0.1053
      30    H14     15.666933   18.755671   22.560937 H          1 MOL1         0.0783
      31    O8      13.978615   17.563486   22.763814 O.3        1 MOL1        -0.5519
      32    H15     13.507942   18.194372   23.352272 H          1 MOL1         0.3769
      33    C10     15.430511   17.525751   20.801501 C.3        1 MOL1         0.1018
      34    H16     14.611908   16.971996   20.323586 H          1 MOL1         0.0783
      35    C11     16.158334   18.402482   19.739770 C.3        1 MOL1         0.1043
      36    H17     17.065977   18.817034   20.195542 H          1 MOL1         0.0783
      37    O9      15.286815   19.490553   19.345190 O.3        1 MOL1        -0.3740
      38    C12     16.607681   17.657062   18.456773 C.3        1 MOL1         0.0138
      39    H18     17.620475   17.268827   18.616500 H          1 MOL1         0.0794
      40    H19     16.676099   18.384822   17.637207 H          1 MOL1         0.0794
      41    O10     15.734982   16.584245   18.086319 O.3        1 MOL1        -0.5486
      42    H20     15.986875   15.811727   18.643472 H          1 MOL1         0.3769
      43    C13     18.409456   24.080466   22.009258 C.3        1 MOL1         0.2972
      44    H21     18.844946   25.062901   22.232980 H          1 MOL1         0.0751
      45    O11     19.417407   23.050983   21.949042 O.3        1 MOL1        -0.3740
      46    C14     17.388838   23.701483   23.107140 C.3        1 MOL1         0.1003
      47    H22     16.586962   24.451020   23.090467 H          1 MOL1         0.0783
      48    O12     18.017019   23.704330   24.399027 O.3        1 MOL1        -0.5519
      49    H23     18.980841   23.539856   24.249749 H          1 MOL1         0.3769
      50    C15     16.762053   22.321351   22.810935 C.3        1 MOL1         0.1053
      51    H24     17.552450   21.570241   22.920854 H          1 MOL1         0.0783
      52    O13     15.714352   22.060676   23.750705 O.3        1 MOL1        -0.5519
      53    H25     16.104966   22.274516   24.627168 H          1 MOL1         0.3769
      54    C16     16.209497   22.233710   21.366229 C.3        1 MOL1         0.1018
      55    H26     15.238900   22.746121   21.331130 H          1 MOL1         0.0783
      56    C17     17.176670   22.830397   20.303268 C.3        1 MOL1         0.1043
      57    H27     18.000932   22.117751   20.175178 H          1 MOL1         0.0783
      58    O14     17.717741   24.103097   20.743963 O.3        1 MOL1        -0.3740
      59    C18     16.526254   23.029749   18.913463 C.3        1 MOL1         0.0138
      60    H28     16.353858   22.042581   18.463720 H          1 MOL1         0.0794
      61    H29     17.236469   23.562515   18.266812 H          1 MOL1         0.0794
      62    O15     15.289806   23.749295   18.994984 O.3        1 MOL1        -0.5486
      63    H30     14.975105   23.906009   18.077944 H          1 MOL1         0.3769
      64    C19     23.582543   22.683005   21.584640 C.3        1 MOL1         0.2972
      65    H31     24.640291   22.926607   21.423869 H          1 MOL1         0.0751
      66    O16     23.406061   21.265408   21.789877 O.3        1 MOL1        -0.3740
      67    C20     23.059140   23.461837   22.823873 C.3        1 MOL1         0.1003
      68    H32     23.190126   24.528954   22.602563 H          1 MOL1         0.0783
      69    O17     23.808539   23.149402   24.005942 O.3        1 MOL1        -0.5519
      70    H33     23.618752   22.197998   24.230548 H          1 MOL1         0.3769
      71    C21     21.549608   23.215023   23.051415 C.3        1 MOL1         0.1053
      72    H34     21.403974   22.159216   23.316519 H          1 MOL1         0.0783
      73    O18     21.077058   24.054684   24.110707 O.3        1 MOL1        -0.5519
      74    H35     21.742925   23.957894   24.827666 H          1 MOL1         0.3769
      75    C22     20.765520   23.514728   21.753543 C.3        1 MOL1         0.1018
      76    H36     20.805177   24.595603   21.564035 H          1 MOL1         0.0783
      77    C23     21.371039   22.769389   20.534588 C.3        1 MOL1         0.1043
      78    H37     21.244697   21.691022   20.699476 H          1 MOL1         0.0783
      79    O19     22.786819   23.080378   20.443549 O.3        1 MOL1        -0.3740
      80    C24     20.702865   23.111915   19.175774 C.3        1 MOL1         0.0138
      81    H38     19.866547   22.420643   19.014779 H          1 MOL1         0.0794
      82    H39     21.426464   22.925591   18.371241 H          1 MOL1         0.0794
      83    O20     20.229944   24.461928   19.098403 O.3        1 MOL1        -0.5486
      84    H40     19.402123   24.510172   19.631487 H          1 MOL1         0.3769
      85    C25     24.923212   17.552797   20.565105 C.3        1 MOL1         0.2972
      86    H41     25.503786   16.737683   20.114244 H          1 MOL1         0.0751
      87    O21     23.675655   17.078166   21.108693 O.3        1 MOL1        -0.3740
      88    C26     25.727886   18.270391   21.679859 C.3        1 MOL1         0.1003
      89    H42     26.615809   18.712580   21.210372 H          1 MOL1         0.0783
      90    O22     26.153612   17.333838   22.681954 O.3        1 MOL1        -0.5519
      91    H43     25.338584   16.990923   23.126088 H          1 MOL1         0.3769
      92    C27     24.883039   19.426209   22.280831 C.3        1 MOL1         0.1053
      93    H44     24.007629   18.980802   22.771059 H          1 MOL1         0.0783
      94    O23     25.641069   20.166200   23.242729 O.3        1 MOL1        -0.5519
      95    H45     24.967964   20.483308   23.898912 H          1 MOL1         0.3769
      96    C28     24.379208   20.390203   21.170747 C.3        1 MOL1         0.1018
      97    H46     25.244418   20.950529   20.793441 H          1 MOL1         0.0783
      98    C29     23.715710   19.608646   19.995237 C.3        1 MOL1         0.1043
      99    H47     22.774357   19.176719   20.360326 H          1 MOL1         0.0783
     100    O24     24.603737   18.544319   19.568301 O.3        1 MOL1        -0.3740
     101    C30     23.372774   20.440385   18.734019 C.3        1 MOL1         0.0138
     102    H48     22.361143   20.843786   18.846660 H          1 MOL1         0.0794
     103    H49     23.342284   19.763523   17.869717 H          1 MOL1         0.0794
     104    O25     24.298167   21.503837   18.485637 O.3        1 MOL1        -0.5486
     105    H50     24.019468   22.254654   19.059617 H          1 MOL1         0.3769
     106    C31     21.341037   13.878647   22.069269 C.3        1 MOL1         0.2972
     107    H51     20.875765   12.916801   22.320964 H          1 MOL1         0.0751
     108    O26     20.353801   14.904198   21.840666 O.3        1 MOL1        -0.3740
     109    C32     22.261740   14.331458   23.225408 C.3        1 MOL1         0.1003
     110    H52     23.052250   13.577640   23.334463 H          1 MOL1         0.0783
     111    O27     21.519788   14.423567   24.452333 O.3        1 MOL1        -0.5519
     112    H53     20.565930   14.508616   24.205725 H          1 MOL1         0.3769
     113    C33     22.932688   15.683358   22.895562 C.3        1 MOL1         0.1053
     114    H54     22.152871   16.450751   22.899823 H          1 MOL1         0.0783
     115    O28     23.901438   15.985763   23.903664 O.3        1 MOL1        -0.5519
     116    H55     23.423180   15.877440   24.755584 H          1 MOL1         0.3769
     117    C34     23.594294   15.692297   21.492769 C.3        1 MOL1         0.1018
     118    H56     24.583097   15.219860   21.562225 H          1 MOL1         0.0783
     119    C35     22.733535   14.998149   20.396856 C.3        1 MOL1         0.1043
     120    H57     21.925130   15.690927   20.133063 H          1 MOL1         0.0783
     121    O29     22.148153   13.761446   20.880384 O.3        1 MOL1        -0.3740
     122    C36     23.513354   14.698083   19.094756 C.3        1 MOL1         0.0138
     123    H58     23.733296   15.650127   18.592995 H          1 MOL1         0.0794
     124    H59     22.865677   14.117990   18.423594 H          1 MOL1         0.0794
     125    O30     24.732365   13.988807   19.347287 O.3        1 MOL1        -0.5486
     126    H60     25.132813   13.765079   18.478821 H          1 MOL1         0.3769
     127    C1      22.851674   19.557081   25.387015 C.2        1 MOL1         0.6173
     128    O1      23.234166   19.172166   26.474858 O.co2      1 MOL1        -0.6755
     129    O2      23.305421   20.545220   24.836083 O.co2      1 MOL1        -0.6755
     130    C2      21.795046   18.753690   24.711383 C.2        1 MOL1        -0.1504
     131    H1      21.451023   17.875825   25.252810 H          1 MOL1         0.0814
     132    C3      21.267147   19.057632   23.503795 C.2        1 MOL1        -0.1394
     133    H2      21.600052   19.934060   22.955911 H          1 MOL1         0.0817
     134    C4      20.197777   18.235801   22.817491 C.3        1 MOL1        -0.1849
     135    H3      20.076987   17.268582   23.321177 H          1 MOL1         0.0736
     136    H4      20.516606   18.013413   21.790794 H          1 MOL1         0.0736
     137    C5      18.840506   18.962281   22.781203 C.3        1 MOL1        -0.1866
     138    H5      18.961928   19.945799   22.308761 H          1 MOL1         0.0738
     139    H6      18.151894   18.391159   22.151070 H          1 MOL1         0.0738
     140    C6      18.221823   19.113990   24.186953 C.3        1 MOL1        -0.2879
     141    H7      18.109478   18.135787   24.671746 H          1 MOL1         0.0750
     142    H8      18.851958   19.744033   24.827867 H          1 MOL1         0.0750
     143    H9      17.229319   19.576581   24.130372 H          1 MOL1         0.0750
@<TRIPOS>BOND
    1     1     2    1
    2     1     3    1
    3     1     4    1
    4     4     5    1
    5     4     6    1
    6     6     7    1
    7     4     8    1
    8     8     9    1
    9     8    10    1
   10    10    11    1
   11     8    12    1
   12    12    13    1
   13    12    14    1
   14    14    15    1
   15     1    16    1
   16    14    16    1
   17    14    17    1
   18    17    18    1
   19    17    19    1
   20    17    20    1
   21    20    21    1
   22    22    23    1
   23    22    24    1
   24    22    25    1
   25    25    26    1
   26    25    27    1
   27    27    28    1
   28    25    29    1
   29    29    30    1
   30    29    31    1
   31    31    32    1
   32     3    33    1
   33    29    33    1
   34    33    34    1
   35    33    35    1
   36    35    36    1
   37    22    37    1
   38    35    37    1
   39    35    38    1
   40    38    39    1
   41    38    40    1
   42    38    41    1
   43    41    42    1
   44    43    44    1
   45    43    45    1
   46    43    46    1
   47    46    47    1
   48    46    48    1
   49    48    49    1
   50    46    50    1
   51    50    51    1
   52    50    52    1
   53    52    53    1
   54    24    54    1
   55    50    54    1
   56    54    55    1
   57    54    56    1
   58    56    57    1
   59    43    58    1
   60    56    58    1
   61    56    59    1
   62    59    60    1
   63    59    61    1
   64    59    62    1
   65    62    63    1
   66    64    65    1
   67    64    66    1
   68    64    67    1
   69    67    68    1
   70    67    69    1
   71    69    70    1
   72    67    71    1
   73    71    72    1
   74    71    73    1
   75    73    74    1
   76    45    75    1
   77    71    75    1
   78    75    76    1
   79    75    77    1
   80    77    78    1
   81    64    79    1
   82    77    79    1
   83    77    80    1
   84    80    81    1
   85    80    82    1
   86    80    83    1
   87    83    84    1
   88    85    86    1
   89    85    87    1
   90    85    88    1
   91    88    89    1
   92    88    90    1
   93    90    91    1
   94    88    92    1
   95    92    93    1
   96    92    94    1
   97    94    95    1
   98    66    96    1
   99    92    96    1
  100    96    97    1
  101    96    98    1
  102    98    99    1
  103    85   100    1
  104    98   100    1
  105    98   101    1
  106   101   102    1
  107   101   103    1
  108   101   104    1
  109   104   105    1
  110   106   107    1
  111    12   108    1
  112   106   108    1
  113   106   109    1
  114   109   110    1
  115   109   111    1
  116   111   112    1
  117   109   113    1
  118   113   114    1
  119   113   115    1
  120   115   116    1
  121    87   117    1
  122   113   117    1
  123   117   118    1
  124   117   119    1
  125   119   120    1
  126   106   121    1
  127   119   121    1
  128   119   122    1
  129   122   123    1
  130   122   124    1
  131   122   125    1
  132   125   126    1
  133   127   128    1
  134   127   129    2
  135   127   130    1
  136   130   131    1
  137   130   132    2
  138   132   133    1
  139   132   134    1
  140   134   135    1
  141   134   136    1
  142   134   137    1
  143   137   138    1
  144   137   139    1
  145   137   140    1
  146   140   141    1
  147   140   142    1
  148   140   143    1
@<TRIPOS>SUBSTRUCTURE
       1 MOL1            1 RESIDUE      1      MOL     
       2 MOL1          143 RESIDUE      1      MOL     
@<SCITEGIC>MOL_PROPERTY
feprocess Rank
SciTegic.value.IntegerValue
92

@<SCITEGIC>MOL_PROPERTY
Conf_Id
SciTegic.value.IntegerValue
517

@<SCITEGIC>MOL_PROPERTY
Probability
SciTegic.value.DoubleValue
0.00

@<SCITEGIC>MOL_PROPERTY
G
SciTegic.value.DoubleValue
501.315

@<SCITEGIC>MOL_PROPERTY
E
SciTegic.value.DoubleValue
318.383

@<SCITEGIC>MOL_PROPERTY
-TS
SciTegic.value.DoubleValue
182.932

@<SCITEGIC>MOL_PROPERTY
U+W
SciTegic.value.DoubleValue
192.295

@<SCITEGIC>MOL_PROPERTY
U
SciTegic.value.DoubleValue
273.162

@<SCITEGIC>MOL_PROPERTY
W
SciTegic.value.DoubleValue
-80.868

@<SCITEGIC>MOL_PROPERTY
W(PB)
SciTegic.value.DoubleValue
-86.901

@<SCITEGIC>MOL_PROPERTY
W(SA)
SciTegic.value.DoubleValue
6.034

@<SCITEGIC>MOL_PROPERTY
Valence
SciTegic.value.DoubleValue
151.630

@<SCITEGIC>MOL_PROPERTY
Coulomb
SciTegic.value.DoubleValue
144.994

@<SCITEGIC>MOL_PROPERTY
VdW
SciTegic.value.DoubleValue
-23.462

@<SCITEGIC>MOL_PROPERTY
VdW6
SciTegic.value.DoubleValue
-179.929

@<SCITEGIC>MOL_PROPERTY
VdW12
SciTegic.value.DoubleValue
156.467

@<SCITEGIC>MOL_PROPERTY
Bond
SciTegic.value.DoubleValue
4.945

@<SCITEGIC>MOL_PROPERTY
Angle
SciTegic.value.DoubleValue
14.142

@<SCITEGIC>MOL_PROPERTY
Pdih
SciTegic.value.DoubleValue
132.542

@<SCITEGIC>MOL_PROPERTY
Idih
SciTegic.value.DoubleValue
0.001

@<SCITEGIC>MOL_PROPERTY
Tether
SciTegic.value.DoubleValue
0.000

@<TRIPOS>MOLECULE
CD_guest-s19_fast_vm2_rndm.mol2 : feprocess host+ligand conformer 93
         143         148           2
SMALL
USER_CHARGES
 
@<TRIPOS>ATOM
       1    C1      16.186264   15.257388   20.687967 C.3        1 MOL1         0.2972
       2    H1      15.181559   15.092782   20.277850 H          1 MOL1         0.0751
       3    O1      16.295373   16.534506   21.341760 O.3        1 MOL1        -0.3740
       4    C2      16.518632   14.185281   21.755866 C.3        1 MOL1         0.1003
       5    H2      16.436562   13.200932   21.277006 H          1 MOL1         0.0783
       6    O2      15.589490   14.265831   22.849789 O.3        1 MOL1        -0.5519
       7    H3      15.444955   15.227680   23.031304 H          1 MOL1         0.3769
       8    C3      17.970141   14.352619   22.271730 C.3        1 MOL1         0.1053
       9    H4      18.027517   15.291459   22.840084 H          1 MOL1         0.0783
      10    O3      18.307365   13.250415   23.121588 O.3        1 MOL1        -0.5519
      11    H5      17.542374   13.152493   23.730965 H          1 MOL1         0.3769
      12    C4      18.974409   14.440524   21.096747 C.3        1 MOL1         0.1018
      13    H6      19.029911   13.454327   20.617314 H          1 MOL1         0.0783
      14    C5      18.534389   15.494594   20.042887 C.3        1 MOL1         0.1043
      15    H7      18.565802   16.489935   20.504930 H          1 MOL1         0.0783
      16    O4      17.178824   15.185011   19.643139 O.3        1 MOL1        -0.3740
      17    C6      19.404167   15.559086   18.761752 C.3        1 MOL1         0.0138
      18    H8      20.247202   16.235459   18.944076 H          1 MOL1         0.0794
      19    H9      18.808491   16.016427   17.960445 H          1 MOL1         0.0794
      20    O5      19.893719   14.278102   18.347045 O.3        1 MOL1        -0.5486
      21    H10     20.700368   14.100313   18.883823 H          1 MOL1         0.3769
      22    C7      14.614524   20.316719   21.306842 C.3        1 MOL1         0.2972
      23    H11     13.964289   21.196119   21.216372 H          1 MOL1         0.0751
      24    O6      15.974267   20.677571   21.615109 O.3        1 MOL1        -0.3740
      25    C8      14.120739   19.389157   22.443725 C.3        1 MOL1         0.1003
      26    H12     13.105498   19.059630   22.187365 H          1 MOL1         0.0783
      27    O7      14.091685   20.092597   23.696582 O.3        1 MOL1        -0.5519
      28    H13     14.904158   20.658680   23.733098 H          1 MOL1         0.3769
      29    C9      15.022216   18.134900   22.548443 C.3        1 MOL1         0.1053
      30    H14     16.016035   18.455588   22.890931 H          1 MOL1         0.0783
      31    O8      14.460325   17.215200   23.492204 O.3        1 MOL1        -0.5519
      32    H15     14.229853   17.762528   24.275498 H          1 MOL1         0.3769
      33    C10     15.188029   17.437046   21.175886 C.3        1 MOL1         0.1018
      34    H16     14.255300   16.904397   20.948417 H          1 MOL1         0.0783
      35    C11     15.523372   18.436769   20.031281 C.3        1 MOL1         0.1043
      36    H17     16.547357   18.799510   20.181136 H          1 MOL1         0.0783
      37    O9      14.606265   19.556246   20.082641 O.3        1 MOL1        -0.3740
      38    C12     15.455490   17.834889   18.607766 C.3        1 MOL1         0.0138
      39    H18     16.347301   17.216683   18.446315 H          1 MOL1         0.0794
      40    H19     15.505922   18.656720   17.881184 H          1 MOL1         0.0794
      41    O10     14.268223   17.057541   18.400888 O.3        1 MOL1        -0.5486
      42    H20     14.281388   16.739051   17.472346 H          1 MOL1         0.3769
      43    C13     18.546797   23.943507   21.602352 C.3        1 MOL1         0.2972
      44    H21     18.968382   24.957080   21.588121 H          1 MOL1         0.0751
      45    O11     19.578374   22.942970   21.570823 O.3        1 MOL1        -0.3740
      46    C14     17.722796   23.741669   22.896906 C.3        1 MOL1         0.1003
      47    H22     16.918204   24.488472   22.898112 H          1 MOL1         0.0783
      48    O12     18.551590   23.934112   24.054471 O.3        1 MOL1        -0.5519
      49    H23     19.487869   23.861922   23.746922 H          1 MOL1         0.3769
      50    C15     17.076006   22.338812   22.919597 C.3        1 MOL1         0.1053
      51    H24     17.877662   21.590717   22.988003 H          1 MOL1         0.0783
      52    O13     16.209658   22.229658   24.054408 O.3        1 MOL1        -0.5519
      53    H25     16.735562   22.582826   24.806494 H          1 MOL1         0.3769
      54    C16     16.279591   22.081960   21.619327 C.3        1 MOL1         0.1018
      55    H26     15.374540   22.703335   21.636771 H          1 MOL1         0.0783
      56    C17     17.115369   22.399531   20.348492 C.3        1 MOL1         0.1043
      57    H27     17.916396   21.652398   20.277374 H          1 MOL1         0.0783
      58    O14     17.694560   23.726669   20.457921 O.3        1 MOL1        -0.3740
      59    C18     16.304021   22.332926   19.033292 C.3        1 MOL1         0.0138
      60    H28     16.076711   21.280766   18.817392 H          1 MOL1         0.0794
      61    H29     16.933972   22.701316   18.212590 H          1 MOL1         0.0794
      62    O15     15.090087   23.091418   19.110598 O.3        1 MOL1        -0.5486
      63    H30     14.636894   23.015680   18.243055 H          1 MOL1         0.3769
      64    C19     23.625143   22.574861   20.691137 C.3        1 MOL1         0.2972
      65    H31     24.647538   22.696476   20.310639 H          1 MOL1         0.0751
      66    O16     23.442081   21.313384   21.354932 O.3        1 MOL1        -0.3740
      67    C20     23.274057   23.675965   21.724275 C.3        1 MOL1         0.1003
      68    H32     23.345242   24.645204   21.213937 H          1 MOL1         0.0783
      69    O17     24.188526   23.653295   22.832595 O.3        1 MOL1        -0.5519
      70    H33     24.247241   22.714989   23.146108 H          1 MOL1         0.3769
      71    C21     21.818700   23.497607   22.224858 C.3        1 MOL1         0.1053
      72    H34     21.764008   22.563696   22.801282 H          1 MOL1         0.0783
      73    O18     21.456518   24.601780   23.060982 O.3        1 MOL1        -0.5519
      74    H35     22.226090   24.733850   23.658506 H          1 MOL1         0.3769
      75    C22     20.834921   23.386191   21.034275 C.3        1 MOL1         0.1018
      76    H36     20.755050   24.371371   20.556114 H          1 MOL1         0.0783
      77    C23     21.298750   22.352126   19.972683 C.3        1 MOL1         0.1043
      78    H37     21.250505   21.349383   20.414334 H          1 MOL1         0.0783
      79    O19     22.668900   22.652608   19.609657 O.3        1 MOL1        -0.3740
      80    C24     20.434034   22.314932   18.685185 C.3        1 MOL1         0.0138
      81    H38     19.612142   21.604613   18.837758 H          1 MOL1         0.0794
      82    H39     21.045199   21.913223   17.866059 H          1 MOL1         0.0794
      83    O20     19.898291   23.594914   18.324257 O.3        1 MOL1        -0.5486
      84    H40     19.173140   23.794456   18.961150 H          1 MOL1         0.3769
      85    C25     25.151673   17.659591   22.065489 C.3        1 MOL1         0.2972
      86    H41     25.803264   16.791892   22.230533 H          1 MOL1         0.0751
      87    O21     23.761846   17.286286   22.050052 O.3        1 MOL1        -0.3740
      88    C26     25.351006   18.686583   23.204296 C.3        1 MOL1         0.1003
      89    H42     26.397296   19.017589   23.177273 H          1 MOL1         0.0783
      90    O22     25.073838   18.078433   24.475940 O.3        1 MOL1        -0.5519
      91    H43     24.417641   17.358297   24.309340 H          1 MOL1         0.3769
      92    C27     24.448896   19.922066   22.986178 C.3        1 MOL1         0.1053
      93    H44     23.405416   19.606726   23.115666 H          1 MOL1         0.0783
      94    O23     24.767910   20.927853   23.953982 O.3        1 MOL1        -0.5519
      95    H45     24.788728   20.452591   24.814262 H          1 MOL1         0.3769
      96    C28     24.605122   20.499119   21.557934 C.3        1 MOL1         0.1018
      97    H46     25.534932   21.081357   21.511772 H          1 MOL1         0.0783
      98    C29     24.588498   19.407476   20.451216 C.3        1 MOL1         0.1043
      99    H47     23.556019   19.044481   20.363547 H          1 MOL1         0.0783
     100    O24     25.458196   18.302849   20.811725 O.3        1 MOL1        -0.3740
     101    C30     25.005954   19.925071   19.054376 C.3        1 MOL1         0.0138
     102    H48     24.201376   20.563610   18.665249 H          1 MOL1         0.0794
     103    H49     25.094936   19.066800   18.374922 H          1 MOL1         0.0794
     104    O25     26.236243   20.659166   19.095636 O.3        1 MOL1        -0.5486
     105    H50     26.472954   20.895302   18.172342 H          1 MOL1         0.3769
     106    C31     21.337407   13.945113   21.417388 C.3        1 MOL1         0.2972
     107    H51     20.991036   12.929127   21.188484 H          1 MOL1         0.0751
     108    O26     20.233683   14.834492   21.671084 O.3        1 MOL1        -0.3740
     109    C32     22.220116   13.915626   22.689302 C.3        1 MOL1         0.1003
     110    H52     23.061213   13.237154   22.496255 H          1 MOL1         0.0783
     111    O27     21.461664   13.429174   23.808160 O.3        1 MOL1        -0.5519
     112    H53     20.519510   13.674780   23.638220 H          1 MOL1         0.3769
     113    C33     22.794413   15.318340   22.992231 C.3        1 MOL1         0.1053
     114    H54     21.958580   15.975527   23.264124 H          1 MOL1         0.0783
     115    O28     23.723654   15.236622   24.078560 O.3        1 MOL1        -0.5519
     116    H55     23.268747   14.696801   24.762471 H          1 MOL1         0.3769
     117    C34     23.486368   15.910197   21.742135 C.3        1 MOL1         0.1018
     118    H56     24.402350   15.338257   21.543659 H          1 MOL1         0.0783
     119    C35     22.563614   15.850005   20.493286 C.3        1 MOL1         0.1043
     120    H57     21.702896   16.508983   20.671678 H          1 MOL1         0.0783
     121    O29     22.107882   14.482958   20.320995 O.3        1 MOL1        -0.3740
     122    C36     23.220452   16.308365   19.165140 C.3        1 MOL1         0.0138
     123    H58     23.068223   17.388588   19.053795 H          1 MOL1         0.0794
     124    H59     22.688293   15.833421   18.330398 H          1 MOL1         0.0794
     125    O30     24.618889   16.005726   19.091234 O.3        1 MOL1        -0.5486
     126    H60     25.084947   16.683871   19.633914 H          1 MOL1         0.3769
     127    C1      19.743770   18.963180   19.740731 C.2        1 MOL1         0.6173
     128    O1      18.759218   18.993916   19.027803 O.co2      1 MOL1        -0.6755
     129    O2      20.866478   18.736061   19.327546 O.co2      1 MOL1        -0.6755
     130    C2      19.542177   19.233317   21.189599 C.2        1 MOL1        -0.1504
     131    H1      18.519484   19.430288   21.500650 H          1 MOL1         0.0814
     132    C3      20.548956   19.249962   22.091031 C.2        1 MOL1        -0.1394
     133    H2      21.573361   19.055042   21.778743 H          1 MOL1         0.0817
     134    C4      20.361367   19.542700   23.562381 C.3        1 MOL1        -0.1849
     135    H3      19.308154   19.766665   23.777495 H          1 MOL1         0.0736
     136    H4      20.935019   20.438950   23.832546 H          1 MOL1         0.0736
     137    C5      20.821212   18.352751   24.427123 C.3        1 MOL1        -0.1866
     138    H5      20.243933   17.458061   24.155718 H          1 MOL1         0.0738
     139    H6      21.876112   18.130707   24.218479 H          1 MOL1         0.0738
     140    C6      20.649875   18.640753   25.931275 C.3        1 MOL1        -0.2879
     141    H7      21.242829   19.514179   26.232385 H          1 MOL1         0.0750
     142    H8      19.598032   18.838419   26.175412 H          1 MOL1         0.0750
     143    H9      20.982521   17.782201   26.528717 H          1 MOL1         0.0750
@<TRIPOS>BOND
    1     1     2    1
    2     1     3    1
    3     1     4    1
    4     4     5    1
    5     4     6    1
    6     6     7    1
    7     4     8    1
    8     8     9    1
    9     8    10    1
   10    10    11    1
   11     8    12    1
   12    12    13    1
   13    12    14    1
   14    14    15    1
   15     1    16    1
   16    14    16    1
   17    14    17    1
   18    17    18    1
   19    17    19    1
   20    17    20    1
   21    20    21    1
   22    22    23    1
   23    22    24    1
   24    22    25    1
   25    25    26    1
   26    25    27    1
   27    27    28    1
   28    25    29    1
   29    29    30    1
   30    29    31    1
   31    31    32    1
   32     3    33    1
   33    29    33    1
   34    33    34    1
   35    33    35    1
   36    35    36    1
   37    22    37    1
   38    35    37    1
   39    35    38    1
   40    38    39    1
   41    38    40    1
   42    38    41    1
   43    41    42    1
   44    43    44    1
   45    43    45    1
   46    43    46    1
   47    46    47    1
   48    46    48    1
   49    48    49    1
   50    46    50    1
   51    50    51    1
   52    50    52    1
   53    52    53    1
   54    24    54    1
   55    50    54    1
   56    54    55    1
   57    54    56    1
   58    56    57    1
   59    43    58    1
   60    56    58    1
   61    56    59    1
   62    59    60    1
   63    59    61    1
   64    59    62    1
   65    62    63    1
   66    64    65    1
   67    64    66    1
   68    64    67    1
   69    67    68    1
   70    67    69    1
   71    69    70    1
   72    67    71    1
   73    71    72    1
   74    71    73    1
   75    73    74    1
   76    45    75    1
   77    71    75    1
   78    75    76    1
   79    75    77    1
   80    77    78    1
   81    64    79    1
   82    77    79    1
   83    77    80    1
   84    80    81    1
   85    80    82    1
   86    80    83    1
   87    83    84    1
   88    85    86    1
   89    85    87    1
   90    85    88    1
   91    88    89    1
   92    88    90    1
   93    90    91    1
   94    88    92    1
   95    92    93    1
   96    92    94    1
   97    94    95    1
   98    66    96    1
   99    92    96    1
  100    96    97    1
  101    96    98    1
  102    98    99    1
  103    85   100    1
  104    98   100    1
  105    98   101    1
  106   101   102    1
  107   101   103    1
  108   101   104    1
  109   104   105    1
  110   106   107    1
  111    12   108    1
  112   106   108    1
  113   106   109    1
  114   109   110    1
  115   109   111    1
  116   111   112    1
  117   109   113    1
  118   113   114    1
  119   113   115    1
  120   115   116    1
  121    87   117    1
  122   113   117    1
  123   117   118    1
  124   117   119    1
  125   119   120    1
  126   106   121    1
  127   119   121    1
  128   119   122    1
  129   122   123    1
  130   122   124    1
  131   122   125    1
  132   125   126    1
  133   127   128    1
  134   127   129    2
  135   127   130    1
  136   130   131    1
  137   130   132    2
  138   132   133    1
  139   132   134    1
  140   134   135    1
  141   134   136    1
  142   134   137    1
  143   137   138    1
  144   137   139    1
  145   137   140    1
  146   140   141    1
  147   140   142    1
  148   140   143    1
@<TRIPOS>SUBSTRUCTURE
       1 MOL1            1 RESIDUE      1      MOL     
       2 MOL1          143 RESIDUE      1      MOL     
@<SCITEGIC>MOL_PROPERTY
feprocess Rank
SciTegic.value.IntegerValue
93

@<SCITEGIC>MOL_PROPERTY
Conf_Id
SciTegic.value.IntegerValue
189

@<SCITEGIC>MOL_PROPERTY
Probability
SciTegic.value.DoubleValue
0.00

@<SCITEGIC>MOL_PROPERTY
G
SciTegic.value.DoubleValue
501.337

@<SCITEGIC>MOL_PROPERTY
E
SciTegic.value.DoubleValue
321.642

@<SCITEGIC>MOL_PROPERTY
-TS
SciTegic.value.DoubleValue
179.695

@<SCITEGIC>MOL_PROPERTY
U+W
SciTegic.value.DoubleValue
195.554

@<SCITEGIC>MOL_PROPERTY
U
SciTegic.value.DoubleValue
264.054

@<SCITEGIC>MOL_PROPERTY
W
SciTegic.value.DoubleValue
-68.499

@<SCITEGIC>MOL_PROPERTY
W(PB)
SciTegic.value.DoubleValue
-74.531

@<SCITEGIC>MOL_PROPERTY
W(SA)
SciTegic.value.DoubleValue
6.031

@<SCITEGIC>MOL_PROPERTY
Valence
SciTegic.value.DoubleValue
148.741

@<SCITEGIC>MOL_PROPERTY
Coulomb
SciTegic.value.DoubleValue
143.650

@<SCITEGIC>MOL_PROPERTY
VdW
SciTegic.value.DoubleValue
-28.337

@<SCITEGIC>MOL_PROPERTY
VdW6
SciTegic.value.DoubleValue
-178.387

@<SCITEGIC>MOL_PROPERTY
VdW12
SciTegic.value.DoubleValue
150.051

@<SCITEGIC>MOL_PROPERTY
Bond
SciTegic.value.DoubleValue
4.193

@<SCITEGIC>MOL_PROPERTY
Angle
SciTegic.value.DoubleValue
12.343

@<SCITEGIC>MOL_PROPERTY
Pdih
SciTegic.value.DoubleValue
132.205

@<SCITEGIC>MOL_PROPERTY
Idih
SciTegic.value.DoubleValue
0.001

@<SCITEGIC>MOL_PROPERTY
Tether
SciTegic.value.DoubleValue
0.000

@<TRIPOS>MOLECULE
CD_guest-s19_fast_vm2_rndm.mol2 : feprocess host+ligand conformer 94
         143         148           2
SMALL
USER_CHARGES
 
@<TRIPOS>ATOM
       1    C1      16.172507   15.279184   20.653464 C.3        1 MOL1         0.2972
       2    H1      15.160721   15.133118   20.253596 H          1 MOL1         0.0751
       3    O1      16.350874   16.604146   21.184083 O.3        1 MOL1        -0.3740
       4    C2      16.475115   14.271723   21.792828 C.3        1 MOL1         0.1003
       5    H2      16.384050   13.262800   21.370003 H          1 MOL1         0.0783
       6    O2      15.539857   14.414326   22.874364 O.3        1 MOL1        -0.5519
       7    H3      15.510004   15.374933   23.115901 H          1 MOL1         0.3769
       8    C3      17.926899   14.444986   22.306764 C.3        1 MOL1         0.1053
       9    H4      18.005169   15.423526   22.800776 H          1 MOL1         0.0783
      10    O3      18.225698   13.403937   23.242615 O.3        1 MOL1        -0.5519
      11    H5      17.449388   13.368406   23.844245 H          1 MOL1         0.3769
      12    C4      18.941601   14.409552   21.136264 C.3        1 MOL1         0.1018
      13    H6      18.982819   13.381284   20.753817 H          1 MOL1         0.0783
      14    C5      18.527335   15.365555   19.980998 C.3        1 MOL1         0.1043
      15    H7      18.600736   16.398386   20.339312 H          1 MOL1         0.0783
      16    O4      17.154610   15.083754   19.611942 O.3        1 MOL1        -0.3740
      17    C6      19.399432   15.279312   18.703164 C.3        1 MOL1         0.0138
      18    H8      20.251854   15.959337   18.819282 H          1 MOL1         0.0794
      19    H9      18.810960   15.652688   17.854537 H          1 MOL1         0.0794
      20    O5      19.872885   13.956550   18.427260 O.3        1 MOL1        -0.5486
      21    H10     20.677339   13.824756   18.980535 H          1 MOL1         0.3769
      22    C7      14.641422   20.292413   21.616896 C.3        1 MOL1         0.2972
      23    H11     14.009651   21.184191   21.719420 H          1 MOL1         0.0751
      24    O6      16.036958   20.635840   21.528170 O.3        1 MOL1        -0.3740
      25    C8      14.454784   19.371504   22.844946 C.3        1 MOL1         0.1003
      26    H12     13.405504   19.049534   22.865286 H          1 MOL1         0.0783
      27    O7      14.759895   20.086049   24.053222 O.3        1 MOL1        -0.5519
      28    H13     15.379595   20.814305   23.802997 H          1 MOL1         0.3769
      29    C9      15.343161   18.112523   22.721587 C.3        1 MOL1         0.1053
      30    H14     16.388333   18.430782   22.808882 H          1 MOL1         0.0783
      31    O8      15.033854   17.200965   23.780774 O.3        1 MOL1        -0.5519
      32    H15     15.022030   17.753721   24.593768 H          1 MOL1         0.3769
      33    C10     15.169500   17.408039   21.352893 C.3        1 MOL1         0.1018
      34    H16     14.254502   16.801737   21.384168 H          1 MOL1         0.0783
      35    C11     15.128651   18.394011   20.149899 C.3        1 MOL1         0.1043
      36    H17     16.155685   18.738474   19.979441 H          1 MOL1         0.0783
      37    O9      14.287989   19.541913   20.437309 O.3        1 MOL1        -0.3740
      38    C12     14.641382   17.747724   18.831151 C.3        1 MOL1         0.0138
      39    H18     15.418330   17.059809   18.471240 H          1 MOL1         0.0794
      40    H19     14.529302   18.535961   18.074502 H          1 MOL1         0.0794
      41    O10     13.406661   17.040861   19.001203 O.3        1 MOL1        -0.5486
      42    H20     13.120174   16.724261   18.116756 H          1 MOL1         0.3769
      43    C13     18.542170   23.876456   20.693486 C.3        1 MOL1         0.2972
      44    H21     18.938191   24.841941   20.353551 H          1 MOL1         0.0751
      45    O11     19.603822   22.976495   21.071147 O.3        1 MOL1        -0.3740
      46    C14     17.567762   24.061437   21.891033 C.3        1 MOL1         0.1003
      47    H22     16.744738   24.696833   21.538979 H          1 MOL1         0.0783
      48    O12     18.201691   24.705692   23.006131 O.3        1 MOL1        -0.5519
      49    H23     18.956329   24.127551   23.285986 H          1 MOL1         0.3769
      50    C15     16.963525   22.701833   22.320770 C.3        1 MOL1         0.1053
      51    H24     17.773797   22.073971   22.716246 H          1 MOL1         0.0783
      52    O13     15.971124   22.910185   23.331717 O.3        1 MOL1        -0.5519
      53    H25     16.373904   23.551201   23.958777 H          1 MOL1         0.3769
      54    C16     16.335295   21.977073   21.105905 C.3        1 MOL1         0.1018
      55    H26     15.433065   22.522385   20.798948 H          1 MOL1         0.0783
      56    C17     17.320362   21.906285   19.906213 C.3        1 MOL1         0.1043
      57    H27     18.165966   21.264915   20.187674 H          1 MOL1         0.0783
      58    O14     17.802447   23.244087   19.624914 O.3        1 MOL1        -0.3740
      59    C18     16.721243   21.317307   18.602142 C.3        1 MOL1         0.0138
      60    H28     16.897711   20.234993   18.595397 H          1 MOL1         0.0794
      61    H29     17.274246   21.729568   17.747632 H          1 MOL1         0.0794
      62    O15     15.320262   21.577805   18.450529 O.3        1 MOL1        -0.5486
      63    H30     14.845851   20.990532   19.084579 H          1 MOL1         0.3769
      64    C19     23.645526   22.740108   21.881736 C.3        1 MOL1         0.2972
      65    H31     24.703425   22.910120   22.119073 H          1 MOL1         0.0751
      66    O16     23.412423   21.396475   21.410562 O.3        1 MOL1        -0.3740
      67    C20     22.754601   23.013671   23.122568 C.3        1 MOL1         0.1003
      68    H32     22.878991   24.072898   23.382929 H          1 MOL1         0.0783
      69    O17     23.127127   22.208232   24.251684 O.3        1 MOL1        -0.5519
      70    H33     24.008914   21.812040   24.051984 H          1 MOL1         0.3769
      71    C21     21.268729   22.774615   22.779625 C.3        1 MOL1         0.1053
      72    H34     21.147348   21.705833   22.564074 H          1 MOL1         0.0783
      73    O18     20.464529   23.140302   23.905373 O.3        1 MOL1        -0.5519
      74    H35     20.911024   22.712252   24.670644 H          1 MOL1         0.3769
      75    C22     20.835532   23.572092   21.525015 C.3        1 MOL1         0.1018
      76    H36     20.704795   24.624996   21.808012 H          1 MOL1         0.0783
      77    C23     21.859951   23.455400   20.358730 C.3        1 MOL1         0.1043
      78    H37     21.772968   22.447235   19.932516 H          1 MOL1         0.0783
      79    O19     23.214253   23.647264   20.845072 O.3        1 MOL1        -0.3740
      80    C24     21.606302   24.459332   19.208638 C.3        1 MOL1         0.0138
      81    H38     20.699558   24.150897   18.670851 H          1 MOL1         0.0794
      82    H39     22.442465   24.397125   18.499325 H          1 MOL1         0.0794
      83    O20     21.455622   25.802680   19.685027 O.3        1 MOL1        -0.5486
      84    H40     21.383710   26.390386   18.901345 H          1 MOL1         0.3769
      85    C25     25.186424   17.654171   21.526906 C.3        1 MOL1         0.2972
      86    H41     25.859815   16.792120   21.442141 H          1 MOL1         0.0751
      87    O21     23.866535   17.245265   21.953268 O.3        1 MOL1        -0.3740
      88    C26     25.780854   18.666102   22.538711 C.3        1 MOL1         0.1003
      89    H42     26.753921   18.977538   22.137146 H          1 MOL1         0.0783
      90    O22     25.985558   18.070144   23.827504 O.3        1 MOL1        -0.5519
      91    H43     25.084979   17.949087   24.234109 H          1 MOL1         0.3769
      92    C27     24.898591   19.927658   22.665435 C.3        1 MOL1         0.1053
      93    H44     23.959167   19.633316   23.146220 H          1 MOL1         0.0783
      94    O23     25.589825   20.882576   23.478882 O.3        1 MOL1        -0.5519
      95    H45     25.974479   20.353752   24.215107 H          1 MOL1         0.3769
      96    C28     24.559770   20.533293   21.277146 C.3        1 MOL1         0.1018
      97    H46     25.432291   21.082441   20.901597 H          1 MOL1         0.0783
      98    C29     24.148382   19.452062   20.239725 C.3        1 MOL1         0.1043
      99    H47     23.150870   19.086634   20.513619 H          1 MOL1         0.0783
     100    O24     25.078570   18.339530   20.260955 O.3        1 MOL1        -0.3740
     101    C30     24.048189   19.995965   18.792170 C.3        1 MOL1         0.0138
     102    H48     23.162313   20.641591   18.722830 H          1 MOL1         0.0794
     103    H49     23.886911   19.152205   18.109207 H          1 MOL1         0.0794
     104    O25     25.212806   20.728442   18.392673 O.3        1 MOL1        -0.5486
     105    H50     25.189117   21.594879   18.852246 H          1 MOL1         0.3769
     106    C31     21.307857   13.921013   21.489213 C.3        1 MOL1         0.2972
     107    H51     20.949674   12.898416   21.314849 H          1 MOL1         0.0751
     108    O26     20.209099   14.836289   21.676404 O.3        1 MOL1        -0.3740
     109    C32     22.183860   13.943934   22.764729 C.3        1 MOL1         0.1003
     110    H52     23.004781   13.230723   22.617045 H          1 MOL1         0.0783
     111    O27     21.390114   13.522898   23.886047 O.3        1 MOL1        -0.5519
     112    H53     20.490473   13.904750   23.753498 H          1 MOL1         0.3769
     113    C33     22.811139   15.344338   22.993687 C.3        1 MOL1         0.1053
     114    H54     22.000349   16.039651   23.249200 H          1 MOL1         0.0783
     115    O28     23.766999   15.284350   24.060010 O.3        1 MOL1        -0.5519
     116    H55     23.725014   16.165180   24.513624 H          1 MOL1         0.3769
     117    C34     23.515872   15.860575   21.710681 C.3        1 MOL1         0.1018
     118    H56     24.409826   15.243836   21.550102 H          1 MOL1         0.0783
     119    C35     22.581140   15.741794   20.469402 C.3        1 MOL1         0.1043
     120    H57     21.732440   16.420732   20.616381 H          1 MOL1         0.0783
     121    O29     22.095096   14.379552   20.372534 O.3        1 MOL1        -0.3740
     122    C36     23.216229   16.092477   19.100941 C.3        1 MOL1         0.0138
     123    H58     23.129865   17.173166   18.943136 H          1 MOL1         0.0794
     124    H59     22.626124   15.612415   18.309014 H          1 MOL1         0.0794
     125    O30     24.585724   15.691879   18.994166 O.3        1 MOL1        -0.5486
     126    H60     25.121459   16.462752   19.290144 H          1 MOL1         0.3769
     127    C1      22.263226   17.912953   25.225577 C.2        1 MOL1         0.6173
     128    O1      23.466377   17.989716   25.054281 O.co2      1 MOL1        -0.6755
     129    O2      21.762378   17.119324   25.998238 O.co2      1 MOL1        -0.6755
     130    C2      21.384510   18.739531   24.353646 C.2        1 MOL1        -0.1504
     131    H1      21.884856   19.448995   23.702309 H          1 MOL1         0.0814
     132    C3      20.038796   18.617956   24.310438 C.2        1 MOL1        -0.1394
     133    H2      19.525616   17.895941   24.944731 H          1 MOL1         0.0817
     134    C4      19.147158   19.416874   23.382991 C.3        1 MOL1        -0.1849
     135    H3      19.501448   20.449511   23.297021 H          1 MOL1         0.0736
     136    H4      18.145644   19.481591   23.826628 H          1 MOL1         0.0736
     137    C5      19.037765   18.771279   21.983366 C.3        1 MOL1        -0.1866
     138    H5      18.804804   17.706149   22.103271 H          1 MOL1         0.0738
     139    H6      18.195704   19.217517   21.443463 H          1 MOL1         0.0738
     140    C6      20.311744   18.938458   21.128898 C.3        1 MOL1        -0.2879
     141    H7      21.167745   18.447324   21.605883 H          1 MOL1         0.0750
     142    H8      20.173240   18.491731   20.136851 H          1 MOL1         0.0750
     143    H9      20.555877   19.999705   20.992930 H          1 MOL1         0.0750
@<TRIPOS>BOND
    1     1     2    1
    2     1     3    1
    3     1     4    1
    4     4     5    1
    5     4     6    1
    6     6     7    1
    7     4     8    1
    8     8     9    1
    9     8    10    1
   10    10    11    1
   11     8    12    1
   12    12    13    1
   13    12    14    1
   14    14    15    1
   15     1    16    1
   16    14    16    1
   17    14    17    1
   18    17    18    1
   19    17    19    1
   20    17    20    1
   21    20    21    1
   22    22    23    1
   23    22    24    1
   24    22    25    1
   25    25    26    1
   26    25    27    1
   27    27    28    1
   28    25    29    1
   29    29    30    1
   30    29    31    1
   31    31    32    1
   32     3    33    1
   33    29    33    1
   34    33    34    1
   35    33    35    1
   36    35    36    1
   37    22    37    1
   38    35    37    1
   39    35    38    1
   40    38    39    1
   41    38    40    1
   42    38    41    1
   43    41    42    1
   44    43    44    1
   45    43    45    1
   46    43    46    1
   47    46    47    1
   48    46    48    1
   49    48    49    1
   50    46    50    1
   51    50    51    1
   52    50    52    1
   53    52    53    1
   54    24    54    1
   55    50    54    1
   56    54    55    1
   57    54    56    1
   58    56    57    1
   59    43    58    1
   60    56    58    1
   61    56    59    1
   62    59    60    1
   63    59    61    1
   64    59    62    1
   65    62    63    1
   66    64    65    1
   67    64    66    1
   68    64    67    1
   69    67    68    1
   70    67    69    1
   71    69    70    1
   72    67    71    1
   73    71    72    1
   74    71    73    1
   75    73    74    1
   76    45    75    1
   77    71    75    1
   78    75    76    1
   79    75    77    1
   80    77    78    1
   81    64    79    1
   82    77    79    1
   83    77    80    1
   84    80    81    1
   85    80    82    1
   86    80    83    1
   87    83    84    1
   88    85    86    1
   89    85    87    1
   90    85    88    1
   91    88    89    1
   92    88    90    1
   93    90    91    1
   94    88    92    1
   95    92    93    1
   96    92    94    1
   97    94    95    1
   98    66    96    1
   99    92    96    1
  100    96    97    1
  101    96    98    1
  102    98    99    1
  103    85   100    1
  104    98   100    1
  105    98   101    1
  106   101   102    1
  107   101   103    1
  108   101   104    1
  109   104   105    1
  110   106   107    1
  111    12   108    1
  112   106   108    1
  113   106   109    1
  114   109   110    1
  115   109   111    1
  116   111   112    1
  117   109   113    1
  118   113   114    1
  119   113   115    1
  120   115   116    1
  121    87   117    1
  122   113   117    1
  123   117   118    1
  124   117   119    1
  125   119   120    1
  126   106   121    1
  127   119   121    1
  128   119   122    1
  129   122   123    1
  130   122   124    1
  131   122   125    1
  132   125   126    1
  133   127   128    1
  134   127   129    2
  135   127   130    1
  136   130   131    1
  137   130   132    2
  138   132   133    1
  139   132   134    1
  140   134   135    1
  141   134   136    1
  142   134   137    1
  143   137   138    1
  144   137   139    1
  145   137   140    1
  146   140   141    1
  147   140   142    1
  148   140   143    1
@<TRIPOS>SUBSTRUCTURE
       1 MOL1            1 RESIDUE      1      MOL     
       2 MOL1          143 RESIDUE      1      MOL     
@<SCITEGIC>MOL_PROPERTY
feprocess Rank
SciTegic.value.IntegerValue
94

@<SCITEGIC>MOL_PROPERTY
Conf_Id
SciTegic.value.IntegerValue
808

@<SCITEGIC>MOL_PROPERTY
Probability
SciTegic.value.DoubleValue
0.00

@<SCITEGIC>MOL_PROPERTY
G
SciTegic.value.DoubleValue
501.371

@<SCITEGIC>MOL_PROPERTY
E
SciTegic.value.DoubleValue
318.350

@<SCITEGIC>MOL_PROPERTY
-TS
SciTegic.value.DoubleValue
183.021

@<SCITEGIC>MOL_PROPERTY
U+W
SciTegic.value.DoubleValue
192.261

@<SCITEGIC>MOL_PROPERTY
U
SciTegic.value.DoubleValue
274.877

@<SCITEGIC>MOL_PROPERTY
W
SciTegic.value.DoubleValue
-82.614

@<SCITEGIC>MOL_PROPERTY
W(PB)
SciTegic.value.DoubleValue
-88.668

@<SCITEGIC>MOL_PROPERTY
W(SA)
SciTegic.value.DoubleValue
6.054

@<SCITEGIC>MOL_PROPERTY
Valence
SciTegic.value.DoubleValue
150.636

@<SCITEGIC>MOL_PROPERTY
Coulomb
SciTegic.value.DoubleValue
148.472

@<SCITEGIC>MOL_PROPERTY
VdW
SciTegic.value.DoubleValue
-24.231

@<SCITEGIC>MOL_PROPERTY
VdW6
SciTegic.value.DoubleValue
-181.005

@<SCITEGIC>MOL_PROPERTY
VdW12
SciTegic.value.DoubleValue
156.774

@<SCITEGIC>MOL_PROPERTY
Bond
SciTegic.value.DoubleValue
4.908

@<SCITEGIC>MOL_PROPERTY
Angle
SciTegic.value.DoubleValue
14.338

@<SCITEGIC>MOL_PROPERTY
Pdih
SciTegic.value.DoubleValue
131.362

@<SCITEGIC>MOL_PROPERTY
Idih
SciTegic.value.DoubleValue
0.028

@<SCITEGIC>MOL_PROPERTY
Tether
SciTegic.value.DoubleValue
0.000

@<TRIPOS>MOLECULE
CD_guest-s19_fast_vm2_rndm.mol2 : feprocess host+ligand conformer 95
         143         148           2
SMALL
USER_CHARGES
 
@<TRIPOS>ATOM
       1    C1      16.194618   15.317634   20.229647 C.3        1 MOL1         0.2972
       2    H1      15.194600   15.246275   19.782842 H          1 MOL1         0.0751
       3    O1      16.436371   16.628926   20.782608 O.3        1 MOL1        -0.3740
       4    C2      16.398968   14.247910   21.335560 C.3        1 MOL1         0.1003
       5    H2      16.330782   13.265639   20.850086 H          1 MOL1         0.0783
       6    O2      15.392158   14.327211   22.355073 O.3        1 MOL1        -0.5519
       7    H3      15.465779   15.224558   22.767871 H          1 MOL1         0.3769
       8    C3      17.815610   14.376444   21.948048 C.3        1 MOL1         0.1053
       9    H4      17.882324   15.344034   22.465155 H          1 MOL1         0.0783
      10    O3      18.034739   13.313067   22.880912 O.3        1 MOL1        -0.5519
      11    H5      17.212103   13.266373   23.416828 H          1 MOL1         0.3769
      12    C4      18.902980   14.337386   20.844304 C.3        1 MOL1         0.1018
      13    H6      18.980027   13.304687   20.480199 H          1 MOL1         0.0783
      14    C5      18.575929   15.284215   19.652830 C.3        1 MOL1         0.1043
      15    H7      18.680048   16.317075   19.998574 H          1 MOL1         0.0783
      16    O4      17.206046   15.072355   19.225573 O.3        1 MOL1        -0.3740
      17    C6      19.509884   15.139651   18.424015 C.3        1 MOL1         0.0138
      18    H8      20.376825   15.795946   18.569089 H          1 MOL1         0.0794
      19    H9      18.978145   15.507862   17.536565 H          1 MOL1         0.0794
      20    O5      19.960628   13.798224   18.206506 O.3        1 MOL1        -0.5486
      21    H10     20.748938   13.670133   18.781781 H          1 MOL1         0.3769
      22    C7      14.801805   20.216389   21.933487 C.3        1 MOL1         0.2972
      23    H11     14.180941   21.071384   22.231275 H          1 MOL1         0.0751
      24    O6      16.168904   20.605749   21.705187 O.3        1 MOL1        -0.3740
      25    C8      14.786124   19.140076   23.042899 C.3        1 MOL1         0.1003
      26    H12     13.750992   18.790686   23.150500 H          1 MOL1         0.0783
      27    O7      15.232827   19.693269   24.291519 O.3        1 MOL1        -0.5519
      28    H13     15.668740   20.555822   24.082813 H          1 MOL1         0.3769
      29    C9      15.661971   17.930978   22.642544 C.3        1 MOL1         0.1053
      30    H14     16.706609   18.263540   22.623144 H          1 MOL1         0.0783
      31    O8      15.509416   16.904159   23.626399 O.3        1 MOL1        -0.5519
      32    H15     15.600926   17.370984   24.487538 H          1 MOL1         0.3769
      33    C10     15.298596   17.392131   21.232720 C.3        1 MOL1         0.1018
      34    H16     14.392277   16.777216   21.310973 H          1 MOL1         0.0783
      35    C11     15.092671   18.523778   20.182682 C.3        1 MOL1         0.1043
      36    H17     16.083882   18.908199   19.915414 H          1 MOL1         0.0783
      37    O9      14.299997   19.613961   20.722413 O.3        1 MOL1        -0.3740
      38    C12     14.430617   18.036240   18.872145 C.3        1 MOL1         0.0138
      39    H18     15.149383   17.404062   18.333325 H          1 MOL1         0.0794
      40    H19     14.224080   18.908619   18.237533 H          1 MOL1         0.0794
      41    O10     13.225370   17.301099   19.117469 O.3        1 MOL1        -0.5486
      42    H20     12.820915   17.092542   18.247103 H          1 MOL1         0.3769
      43    C13     18.481772   24.075645   21.354500 C.3        1 MOL1         0.2972
      44    H21     18.793896   25.111794   21.171542 H          1 MOL1         0.0751
      45    O11     19.611823   23.237224   21.667619 O.3        1 MOL1        -0.3740
      46    C14     17.519535   24.028973   22.569736 C.3        1 MOL1         0.1003
      47    H22     16.664741   24.679098   22.342254 H          1 MOL1         0.0783
      48    O12     18.186504   24.512534   23.745997 O.3        1 MOL1        -0.5519
      49    H23     19.134333   24.251674   23.654461 H          1 MOL1         0.3769
      50    C15     16.983245   22.595931   22.805555 C.3        1 MOL1         0.1053
      51    H24     17.824250   21.966525   23.123096 H          1 MOL1         0.0783
      52    O13     15.983025   22.617919   23.828873 O.3        1 MOL1        -0.5519
      53    H25     16.358202   23.184985   24.539414 H          1 MOL1         0.3769
      54    C16     16.399812   22.009291   21.497594 C.3        1 MOL1         0.1018
      55    H26     15.474397   22.544274   21.246134 H          1 MOL1         0.0783
      56    C17     17.398123   22.143725   20.319009 C.3        1 MOL1         0.1043
      57    H27     18.277975   21.528090   20.545290 H          1 MOL1         0.0783
      58    O14     17.802301   23.531368   20.199440 O.3        1 MOL1        -0.3740
      59    C18     16.842746   21.657051   18.954165 C.3        1 MOL1         0.0138
      60    H28     17.082949   20.591828   18.844790 H          1 MOL1         0.0794
      61    H29     17.371091   22.185220   18.149406 H          1 MOL1         0.0794
      62    O15     15.428412   21.844912   18.817447 O.3        1 MOL1        -0.5486
      63    H30     14.988706   21.216830   19.436325 H          1 MOL1         0.3769
      64    C19     23.668506   22.702812   20.833285 C.3        1 MOL1         0.2972
      65    H31     24.703146   22.802815   20.480650 H          1 MOL1         0.0751
      66    O16     23.417238   21.401620   21.397584 O.3        1 MOL1        -0.3740
      67    C20     23.337515   23.769735   21.909075 C.3        1 MOL1         0.1003
      68    H32     23.466029   24.754781   21.441986 H          1 MOL1         0.0783
      69    O17     24.223338   23.667455   23.034673 O.3        1 MOL1        -0.5519
      70    H33     24.242423   22.715517   23.311010 H          1 MOL1         0.3769
      71    C21     21.860799   23.648745   22.364285 C.3        1 MOL1         0.1053
      72    H34     21.742518   22.691516   22.891536 H          1 MOL1         0.0783
      73    O18     21.542478   24.730101   23.246993 O.3        1 MOL1        -0.5519
      74    H35     22.294763   24.775043   23.878006 H          1 MOL1         0.3769
      75    C22     20.892987   23.656089   21.152738 C.3        1 MOL1         0.1018
      76    H36     20.860119   24.673975   20.742790 H          1 MOL1         0.0783
      77    C23     21.351743   22.660271   20.048128 C.3        1 MOL1         0.1043
      78    H37     21.238935   21.646939   20.448401 H          1 MOL1         0.0783
      79    O19     22.747457   22.895544   19.739905 O.3        1 MOL1        -0.3740
      80    C24     20.561784   22.717512   18.716190 C.3        1 MOL1         0.0138
      81    H38     19.709717   22.032153   18.785191 H          1 MOL1         0.0794
      82    H39     21.206114   22.334755   17.913487 H          1 MOL1         0.0794
      83    O20     20.100435   24.031930   18.386670 O.3        1 MOL1        -0.5486
      84    H40     19.257197   24.163564   18.878434 H          1 MOL1         0.3769
      85    C25     25.043864   17.673195   22.092432 C.3        1 MOL1         0.2972
      86    H41     25.695239   16.804057   22.248166 H          1 MOL1         0.0751
      87    O21     23.647078   17.294860   22.103069 O.3        1 MOL1        -0.3740
      88    C26     25.314494   18.722537   23.199770 C.3        1 MOL1         0.1003
      89    H42     26.345770   19.073265   23.064963 H          1 MOL1         0.0783
      90    O22     25.203658   18.143180   24.507657 O.3        1 MOL1        -0.5519
      91    H43     24.237562   18.058202   24.718635 H          1 MOL1         0.3769
      92    C27     24.376576   19.937102   23.010817 C.3        1 MOL1         0.1053
      93    H44     23.341849   19.584897   23.074254 H          1 MOL1         0.0783
      94    O23     24.617506   20.932785   24.014261 O.3        1 MOL1        -0.5519
      95    H45     24.244059   20.561593   24.856263 H          1 MOL1         0.3769
      96    C28     24.553871   20.541149   21.600161 C.3        1 MOL1         0.1018
      97    H46     25.504223   21.090097   21.567052 H          1 MOL1         0.0783
      98    C29     24.508666   19.453427   20.486763 C.3        1 MOL1         0.1043
      99    H47     23.468056   19.119293   20.397597 H          1 MOL1         0.0783
     100    O24     25.337954   18.309096   20.828861 O.3        1 MOL1        -0.3740
     101    C30     24.944446   19.977431   19.097983 C.3        1 MOL1         0.0138
     102    H48     24.169903   20.661045   18.724676 H          1 MOL1         0.0794
     103    H49     24.994680   19.129288   18.402081 H          1 MOL1         0.0794
     104    O25     26.206221   20.654714   19.150320 O.3        1 MOL1        -0.5486
     105    H50     26.450542   20.901031   18.231678 H          1 MOL1         0.3769
     106    C31     21.256685   13.902651   21.363449 C.3        1 MOL1         0.2972
     107    H51     20.945495   12.874638   21.138345 H          1 MOL1         0.0751
     108    O26     20.122273   14.786474   21.466053 O.3        1 MOL1        -0.3740
     109    C32     21.994917   13.934030   22.724930 C.3        1 MOL1         0.1003
     110    H52     22.857281   13.258816   22.655987 H          1 MOL1         0.0783
     111    O27     21.105274   13.464053   23.751930 O.3        1 MOL1        -0.5519
     112    H53     20.201758   13.779511   23.510210 H          1 MOL1         0.3769
     113    C33     22.528302   15.358992   23.031558 C.3        1 MOL1         0.1053
     114    H54     21.664051   16.017856   23.178609 H          1 MOL1         0.0783
     115    O28     23.330594   15.352390   24.216619 O.3        1 MOL1        -0.5519
     116    H55     23.151555   16.225803   24.653380 H          1 MOL1         0.3769
     117    C34     23.361075   15.901691   21.839863 C.3        1 MOL1         0.1018
     118    H56     24.280358   15.306281   21.765015 H          1 MOL1         0.0783
     119    C35     22.567432   15.780438   20.507758 C.3        1 MOL1         0.1043
     120    H57     21.684254   16.425046   20.579993 H          1 MOL1         0.0783
     121    O29     22.136641   14.406341   20.335362 O.3        1 MOL1        -0.3740
     122    C36     23.340502   16.204578   19.233414 C.3        1 MOL1         0.0138
     123    H58     23.235837   17.288657   19.105618 H          1 MOL1         0.0794
     124    H59     22.862304   15.736012   18.363105 H          1 MOL1         0.0794
     125    O30     24.728162   15.855645   19.273971 O.3        1 MOL1        -0.5486
     126    H60     25.182698   16.568223   19.780800 H          1 MOL1         0.3769
     127    C1      22.176373   19.078524   25.321790 C.2        1 MOL1         0.6173
     128    O1      22.821069   19.835674   26.021061 O.co2      1 MOL1        -0.6755
     129    O2      22.485872   17.909934   25.166339 O.co2      1 MOL1        -0.6755
     130    C2      21.115226   19.680507   24.468190 C.2        1 MOL1        -0.1504
     131    H1      20.919171   20.738673   24.623663 H          1 MOL1         0.0814
     132    C3      20.449126   18.994351   23.513790 C.2        1 MOL1        -0.1394
     133    H2      20.655888   17.939499   23.349788 H          1 MOL1         0.0817
     134    C4      19.401980   19.607091   22.609727 C.3        1 MOL1        -0.1849
     135    H3      19.704511   20.617371   22.308337 H          1 MOL1         0.0736
     136    H4      18.467272   19.711386   23.174595 H          1 MOL1         0.0736
     137    C5      19.142704   18.741457   21.357942 C.3        1 MOL1        -0.1866
     138    H5      18.989042   17.701547   21.674034 H          1 MOL1         0.0738
     139    H6      18.212822   19.060944   20.873650 H          1 MOL1         0.0738
     140    C6      20.290271   18.819576   20.331365 C.3        1 MOL1        -0.2879
     141    H7      21.258856   18.644793   20.814835 H          1 MOL1         0.0750
     142    H8      20.157262   18.075049   19.538320 H          1 MOL1         0.0750
     143    H9      20.316069   19.803572   19.854629 H          1 MOL1         0.0750
@<TRIPOS>BOND
    1     1     2    1
    2     1     3    1
    3     1     4    1
    4     4     5    1
    5     4     6    1
    6     6     7    1
    7     4     8    1
    8     8     9    1
    9     8    10    1
   10    10    11    1
   11     8    12    1
   12    12    13    1
   13    12    14    1
   14    14    15    1
   15     1    16    1
   16    14    16    1
   17    14    17    1
   18    17    18    1
   19    17    19    1
   20    17    20    1
   21    20    21    1
   22    22    23    1
   23    22    24    1
   24    22    25    1
   25    25    26    1
   26    25    27    1
   27    27    28    1
   28    25    29    1
   29    29    30    1
   30    29    31    1
   31    31    32    1
   32     3    33    1
   33    29    33    1
   34    33    34    1
   35    33    35    1
   36    35    36    1
   37    22    37    1
   38    35    37    1
   39    35    38    1
   40    38    39    1
   41    38    40    1
   42    38    41    1
   43    41    42    1
   44    43    44    1
   45    43    45    1
   46    43    46    1
   47    46    47    1
   48    46    48    1
   49    48    49    1
   50    46    50    1
   51    50    51    1
   52    50    52    1
   53    52    53    1
   54    24    54    1
   55    50    54    1
   56    54    55    1
   57    54    56    1
   58    56    57    1
   59    43    58    1
   60    56    58    1
   61    56    59    1
   62    59    60    1
   63    59    61    1
   64    59    62    1
   65    62    63    1
   66    64    65    1
   67    64    66    1
   68    64    67    1
   69    67    68    1
   70    67    69    1
   71    69    70    1
   72    67    71    1
   73    71    72    1
   74    71    73    1
   75    73    74    1
   76    45    75    1
   77    71    75    1
   78    75    76    1
   79    75    77    1
   80    77    78    1
   81    64    79    1
   82    77    79    1
   83    77    80    1
   84    80    81    1
   85    80    82    1
   86    80    83    1
   87    83    84    1
   88    85    86    1
   89    85    87    1
   90    85    88    1
   91    88    89    1
   92    88    90    1
   93    90    91    1
   94    88    92    1
   95    92    93    1
   96    92    94    1
   97    94    95    1
   98    66    96    1
   99    92    96    1
  100    96    97    1
  101    96    98    1
  102    98    99    1
  103    85   100    1
  104    98   100    1
  105    98   101    1
  106   101   102    1
  107   101   103    1
  108   101   104    1
  109   104   105    1
  110   106   107    1
  111    12   108    1
  112   106   108    1
  113   106   109    1
  114   109   110    1
  115   109   111    1
  116   111   112    1
  117   109   113    1
  118   113   114    1
  119   113   115    1
  120   115   116    1
  121    87   117    1
  122   113   117    1
  123   117   118    1
  124   117   119    1
  125   119   120    1
  126   106   121    1
  127   119   121    1
  128   119   122    1
  129   122   123    1
  130   122   124    1
  131   122   125    1
  132   125   126    1
  133   127   128    1
  134   127   129    2
  135   127   130    1
  136   130   131    1
  137   130   132    2
  138   132   133    1
  139   132   134    1
  140   134   135    1
  141   134   136    1
  142   134   137    1
  143   137   138    1
  144   137   139    1
  145   137   140    1
  146   140   141    1
  147   140   142    1
  148   140   143    1
@<TRIPOS>SUBSTRUCTURE
       1 MOL1            1 RESIDUE      1      MOL     
       2 MOL1          143 RESIDUE      1      MOL     
@<SCITEGIC>MOL_PROPERTY
feprocess Rank
SciTegic.value.IntegerValue
95

@<SCITEGIC>MOL_PROPERTY
Conf_Id
SciTegic.value.IntegerValue
196

@<SCITEGIC>MOL_PROPERTY
Probability
SciTegic.value.DoubleValue
0.00

@<SCITEGIC>MOL_PROPERTY
G
SciTegic.value.DoubleValue
501.470

@<SCITEGIC>MOL_PROPERTY
E
SciTegic.value.DoubleValue
316.561

@<SCITEGIC>MOL_PROPERTY
-TS
SciTegic.value.DoubleValue
184.909

@<SCITEGIC>MOL_PROPERTY
U+W
SciTegic.value.DoubleValue
190.473

@<SCITEGIC>MOL_PROPERTY
U
SciTegic.value.DoubleValue
266.718

@<SCITEGIC>MOL_PROPERTY
W
SciTegic.value.DoubleValue
-76.245

@<SCITEGIC>MOL_PROPERTY
W(PB)
SciTegic.value.DoubleValue
-82.228

@<SCITEGIC>MOL_PROPERTY
W(SA)
SciTegic.value.DoubleValue
5.983

@<SCITEGIC>MOL_PROPERTY
Valence
SciTegic.value.DoubleValue
153.225

@<SCITEGIC>MOL_PROPERTY
Coulomb
SciTegic.value.DoubleValue
138.073

@<SCITEGIC>MOL_PROPERTY
VdW
SciTegic.value.DoubleValue
-24.580

@<SCITEGIC>MOL_PROPERTY
VdW6
SciTegic.value.DoubleValue
-185.401

@<SCITEGIC>MOL_PROPERTY
VdW12
SciTegic.value.DoubleValue
160.820

@<SCITEGIC>MOL_PROPERTY
Bond
SciTegic.value.DoubleValue
5.089

@<SCITEGIC>MOL_PROPERTY
Angle
SciTegic.value.DoubleValue
14.535

@<SCITEGIC>MOL_PROPERTY
Pdih
SciTegic.value.DoubleValue
133.529

@<SCITEGIC>MOL_PROPERTY
Idih
SciTegic.value.DoubleValue
0.071

@<SCITEGIC>MOL_PROPERTY
Tether
SciTegic.value.DoubleValue
0.000

@<TRIPOS>MOLECULE
CD_guest-s19_fast_vm2_rndm.mol2 : feprocess host+ligand conformer 96
         143         148           2
SMALL
USER_CHARGES
 
@<TRIPOS>ATOM
       1    C1      16.119728   15.038614   21.703150 C.3        1 MOL1         0.2972
       2    H1      15.041738   14.892742   21.849444 H          1 MOL1         0.0751
       3    O1      16.472137   16.433670   21.654226 O.3        1 MOL1        -0.3740
       4    C2      16.904564   14.389836   22.866596 C.3        1 MOL1         0.1003
       5    H2      16.713040   13.309279   22.837767 H          1 MOL1         0.0783
       6    O2      16.465253   14.919066   24.127853 O.3        1 MOL1        -0.5519
       7    H3      16.094214   15.818717   23.948868 H          1 MOL1         0.3769
       8    C3      18.422270   14.615276   22.683878 C.3        1 MOL1         0.1053
       9    H4      18.618033   15.687303   22.810079 H          1 MOL1         0.0783
      10    O3      19.136621   13.880503   23.682730 O.3        1 MOL1        -0.5519
      11    H5      18.670481   14.082851   24.524615 H          1 MOL1         0.3769
      12    C4      18.903650   14.195126   21.271121 C.3        1 MOL1         0.1018
      13    H6      19.023414   13.103721   21.252563 H          1 MOL1         0.0783
      14    C5      17.952385   14.656061   20.127621 C.3        1 MOL1         0.1043
      15    H7      18.110756   15.732457   19.985471 H          1 MOL1         0.0783
      16    O4      16.561347   14.427014   20.474451 O.3        1 MOL1        -0.3740
      17    C6      18.236976   13.974019   18.768246 C.3        1 MOL1         0.0138
      18    H8      19.187041   14.360990   18.375640 H          1 MOL1         0.0794
      19    H9      17.449818   14.263741   18.059150 H          1 MOL1         0.0794
      20    O5      18.303385   12.547329   18.883589 O.3        1 MOL1        -0.5486
      21    H10     18.405291   12.179461   17.978667 H          1 MOL1         0.3769
      22    C7      14.750882   20.205496   21.224240 C.3        1 MOL1         0.2972
      23    H11     14.046657   21.025140   21.033051 H          1 MOL1         0.0751
      24    O6      16.073836   20.695089   21.513326 O.3        1 MOL1        -0.3740
      25    C8      14.278503   19.386400   22.451714 C.3        1 MOL1         0.1003
      26    H12     13.276575   18.998660   22.226257 H          1 MOL1         0.0783
      27    O7      14.212433   20.222759   23.618081 O.3        1 MOL1        -0.5519
      28    H13     14.905757   20.921175   23.511638 H          1 MOL1         0.3769
      29    C9      15.213218   18.179749   22.702580 C.3        1 MOL1         0.1053
      30    H14     16.195845   18.563298   23.008840 H          1 MOL1         0.0783
      31    O8      14.669119   17.356960   23.739792 O.3        1 MOL1        -0.5519
      32    H15     14.397683   17.985688   24.445486 H          1 MOL1         0.3769
      33    C10     15.397658   17.353797   21.407655 C.3        1 MOL1         0.1018
      34    H16     14.455354   16.839724   21.176558 H          1 MOL1         0.0783
      35    C11     15.801242   18.249992   20.204632 C.3        1 MOL1         0.1043
      36    H17     16.794242   18.671238   20.409409 H          1 MOL1         0.0783
      37    O9      14.838736   19.327954   20.079308 O.3        1 MOL1        -0.3740
      38    C12     15.899571   17.507957   18.845881 C.3        1 MOL1         0.0138
      39    H18     16.926659   17.142252   18.723496 H          1 MOL1         0.0794
      40    H19     15.723309   18.230949   18.038300 H          1 MOL1         0.0794
      41    O10     14.985610   16.410881   18.730373 O.3        1 MOL1        -0.5486
      42    H20     15.347455   15.675222   19.277338 H          1 MOL1         0.3769
      43    C13     18.481199   24.056879   20.976550 C.3        1 MOL1         0.2972
      44    H21     18.855753   25.057596   20.726489 H          1 MOL1         0.0751
      45    O11     19.531710   23.195131   21.453206 O.3        1 MOL1        -0.3740
      46    C14     17.412692   24.159088   22.093834 C.3        1 MOL1         0.1003
      47    H22     16.594698   24.784528   21.713357 H          1 MOL1         0.0783
      48    O12     17.964406   24.768694   23.271696 O.3        1 MOL1        -0.5519
      49    H23     18.926114   24.533304   23.298822 H          1 MOL1         0.3769
      50    C15     16.832486   22.764666   22.425800 C.3        1 MOL1         0.1053
      51    H24     17.630345   22.154685   22.872170 H          1 MOL1         0.0783
      52    O13     15.750122   22.902802   23.352772 O.3        1 MOL1        -0.5519
      53    H25     16.082940   23.523079   24.039308 H          1 MOL1         0.3769
      54    C16     16.340252   22.058472   21.140759 C.3        1 MOL1         0.1018
      55    H26     15.439914   22.576086   20.784614 H          1 MOL1         0.0783
      56    C17     17.420530   22.069997   20.022568 C.3        1 MOL1         0.1043
      57    H27     18.259628   21.451639   20.357807 H          1 MOL1         0.0783
      58    O14     17.883542   23.430429   19.819108 O.3        1 MOL1        -0.3740
      59    C18     16.962397   21.490183   18.660289 C.3        1 MOL1         0.0138
      60    H28     17.117728   20.403870   18.676299 H          1 MOL1         0.0794
      61    H29     17.612371   21.893365   17.872301 H          1 MOL1         0.0794
      62    O15     15.591454   21.771058   18.358683 O.3        1 MOL1        -0.5486
      63    H30     15.058044   21.069741   18.797496 H          1 MOL1         0.3769
      64    C19     23.703517   22.856910   21.538387 C.3        1 MOL1         0.2972
      65    H31     24.774850   23.055927   21.407833 H          1 MOL1         0.0751
      66    O16     23.478539   21.539071   22.084110 O.3        1 MOL1        -0.3740
      67    C20     23.081494   23.902596   22.505158 C.3        1 MOL1         0.1003
      68    H32     23.261411   24.891627   22.064693 H          1 MOL1         0.0783
      69    O17     23.697718   23.853350   23.802288 O.3        1 MOL1        -0.5519
      70    H33     23.289583   23.092414   24.296746 H          1 MOL1         0.3769
      71    C21     21.550497   23.706259   22.625731 C.3        1 MOL1         0.1053
      72    H34     21.372783   22.739498   23.107267 H          1 MOL1         0.0783
      73    O18     20.977888   24.756809   23.412084 O.3        1 MOL1        -0.5519
      74    H35     21.454412   24.717719   24.271867 H          1 MOL1         0.3769
      75    C22     20.878907   23.651746   21.236608 C.3        1 MOL1         0.1018
      76    H36     20.916012   24.652068   20.785703 H          1 MOL1         0.0783
      77    C23     21.597575   22.635305   20.312109 C.3        1 MOL1         0.1043
      78    H37     21.478500   21.636198   20.743182 H          1 MOL1         0.0783
      79    O19     23.006208   22.964862   20.274063 O.3        1 MOL1        -0.3740
      80    C24     21.049447   22.565417   18.864181 C.3        1 MOL1         0.0138
      81    H38     20.215301   21.851909   18.845246 H          1 MOL1         0.0794
      82    H39     21.833731   22.158098   18.212565 H          1 MOL1         0.0794
      83    O20     20.602869   23.831511   18.366552 O.3        1 MOL1        -0.5486
      84    H40     19.682691   23.954487   18.693778 H          1 MOL1         0.3769
      85    C25     24.989860   17.681224   21.850146 C.3        1 MOL1         0.2972
      86    H41     25.620127   16.783752   21.800726 H          1 MOL1         0.0751
      87    O21     23.593078   17.347524   21.733162 O.3        1 MOL1        -0.3740
      88    C26     25.226604   18.394136   23.198846 C.3        1 MOL1         0.1003
      89    H42     26.290853   18.657453   23.250024 H          1 MOL1         0.0783
      90    O22     24.911699   17.496189   24.275397 O.3        1 MOL1        -0.5519
      91    H43     24.253444   16.851432   23.922869 H          1 MOL1         0.3769
      92    C27     24.412968   19.707959   23.292633 C.3        1 MOL1         0.1053
      93    H44     23.350042   19.445040   23.386579 H          1 MOL1         0.0783
      94    O23     24.841679   20.447191   24.442735 O.3        1 MOL1        -0.5519
      95    H45     24.133596   20.318905   25.127521 H          1 MOL1         0.3769
      96    C28     24.581016   20.602314   22.033766 C.3        1 MOL1         0.1018
      97    H46     25.546657   21.117940   22.115267 H          1 MOL1         0.0783
      98    C29     24.518491   19.795237   20.698512 C.3        1 MOL1         0.1043
      99    H47     23.471195   19.519152   20.526853 H          1 MOL1         0.0783
     100    O24     25.323007   18.591260   20.786855 O.3        1 MOL1        -0.3740
     101    C30     25.016879   20.559634   19.446518 C.3        1 MOL1         0.0138
     102    H48     24.242391   21.260479   19.118003 H          1 MOL1         0.0794
     103    H49     25.149758   19.837812   18.629354 H          1 MOL1         0.0794
     104    O25     26.244584   21.258157   19.688409 O.3        1 MOL1        -0.5486
     105    H50     26.521399   21.674299   18.843315 H          1 MOL1         0.3769
     106    C31     21.223308   14.134076   20.464479 C.3        1 MOL1         0.2972
     107    H51     20.858373   13.218757   19.980838 H          1 MOL1         0.0751
     108    O26     20.151209   14.882111   21.066281 O.3        1 MOL1        -0.3740
     109    C32     22.261842   13.809268   21.571617 C.3        1 MOL1         0.1003
     110    H52     23.099246   13.288938   21.088867 H          1 MOL1         0.0783
     111    O27     21.703194   12.955868   22.582961 O.3        1 MOL1        -0.5519
     112    H53     20.871012   13.385432   22.906995 H          1 MOL1         0.3769
     113    C33     22.812555   15.112187   22.205032 C.3        1 MOL1         0.1053
     114    H54     21.994815   15.609124   22.745305 H          1 MOL1         0.0783
     115    O28     23.870649   14.790724   23.113218 O.3        1 MOL1        -0.5519
     116    H55     23.536830   14.029216   23.637755 H          1 MOL1         0.3769
     117    C34     23.328957   16.076384   21.108587 C.3        1 MOL1         0.1018
     118    H56     24.234510   15.641993   20.664640 H          1 MOL1         0.0783
     119    C35     22.281629   16.288427   19.983447 C.3        1 MOL1         0.1043
     120    H57     21.417357   16.811233   20.407896 H          1 MOL1         0.0783
     121    O29     21.862693   14.991383   19.491249 O.3        1 MOL1        -0.3740
     122    C36     22.780183   17.139107   18.786446 C.3        1 MOL1         0.0138
     123    H58     22.584245   18.195612   19.006525 H          1 MOL1         0.0794
     124    H59     22.179823   16.884153   17.903050 H          1 MOL1         0.0794
     125    O30     24.173341   16.958857   18.503128 O.3        1 MOL1        -0.5486
     126    H60     24.676770   17.410524   19.220204 H          1 MOL1         0.3769
     127    C1      21.790527   20.988332   25.405822 C.2        1 MOL1         0.6173
     128    O1      22.037101   22.179591   25.415032 O.co2      1 MOL1        -0.6755
     129    O2      22.495433   20.167045   25.962416 O.co2      1 MOL1        -0.6755
     130    C2      20.621158   20.530471   24.605661 C.2        1 MOL1        -0.1504
     131    H1      20.025828   21.312636   24.142113 H          1 MOL1         0.0814
     132    C3      20.295424   19.231313   24.417104 C.2        1 MOL1        -0.1394
     133    H2      20.890333   18.435382   24.864011 H          1 MOL1         0.0817
     134    C4      19.129090   18.777592   23.563155 C.3        1 MOL1        -0.1849
     135    H3      18.425350   19.605906   23.404752 H          1 MOL1         0.0736
     136    H4      18.570103   17.996023   24.094418 H          1 MOL1         0.0736
     137    C5      19.591813   18.226990   22.197046 C.3        1 MOL1        -0.1866
     138    H5      20.247218   17.360950   22.354925 H          1 MOL1         0.0738
     139    H6      18.718383   17.868002   21.639728 H          1 MOL1         0.0738
     140    C6      20.329496   19.285107   21.354718 C.3        1 MOL1        -0.2879
     141    H7      21.309989   19.511067   21.793464 H          1 MOL1         0.0750
     142    H8      20.484301   18.935642   20.327355 H          1 MOL1         0.0750
     143    H9      19.752219   20.214339   21.319507 H          1 MOL1         0.0750
@<TRIPOS>BOND
    1     1     2    1
    2     1     3    1
    3     1     4    1
    4     4     5    1
    5     4     6    1
    6     6     7    1
    7     4     8    1
    8     8     9    1
    9     8    10    1
   10    10    11    1
   11     8    12    1
   12    12    13    1
   13    12    14    1
   14    14    15    1
   15     1    16    1
   16    14    16    1
   17    14    17    1
   18    17    18    1
   19    17    19    1
   20    17    20    1
   21    20    21    1
   22    22    23    1
   23    22    24    1
   24    22    25    1
   25    25    26    1
   26    25    27    1
   27    27    28    1
   28    25    29    1
   29    29    30    1
   30    29    31    1
   31    31    32    1
   32     3    33    1
   33    29    33    1
   34    33    34    1
   35    33    35    1
   36    35    36    1
   37    22    37    1
   38    35    37    1
   39    35    38    1
   40    38    39    1
   41    38    40    1
   42    38    41    1
   43    41    42    1
   44    43    44    1
   45    43    45    1
   46    43    46    1
   47    46    47    1
   48    46    48    1
   49    48    49    1
   50    46    50    1
   51    50    51    1
   52    50    52    1
   53    52    53    1
   54    24    54    1
   55    50    54    1
   56    54    55    1
   57    54    56    1
   58    56    57    1
   59    43    58    1
   60    56    58    1
   61    56    59    1
   62    59    60    1
   63    59    61    1
   64    59    62    1
   65    62    63    1
   66    64    65    1
   67    64    66    1
   68    64    67    1
   69    67    68    1
   70    67    69    1
   71    69    70    1
   72    67    71    1
   73    71    72    1
   74    71    73    1
   75    73    74    1
   76    45    75    1
   77    71    75    1
   78    75    76    1
   79    75    77    1
   80    77    78    1
   81    64    79    1
   82    77    79    1
   83    77    80    1
   84    80    81    1
   85    80    82    1
   86    80    83    1
   87    83    84    1
   88    85    86    1
   89    85    87    1
   90    85    88    1
   91    88    89    1
   92    88    90    1
   93    90    91    1
   94    88    92    1
   95    92    93    1
   96    92    94    1
   97    94    95    1
   98    66    96    1
   99    92    96    1
  100    96    97    1
  101    96    98    1
  102    98    99    1
  103    85   100    1
  104    98   100    1
  105    98   101    1
  106   101   102    1
  107   101   103    1
  108   101   104    1
  109   104   105    1
  110   106   107    1
  111    12   108    1
  112   106   108    1
  113   106   109    1
  114   109   110    1
  115   109   111    1
  116   111   112    1
  117   109   113    1
  118   113   114    1
  119   113   115    1
  120   115   116    1
  121    87   117    1
  122   113   117    1
  123   117   118    1
  124   117   119    1
  125   119   120    1
  126   106   121    1
  127   119   121    1
  128   119   122    1
  129   122   123    1
  130   122   124    1
  131   122   125    1
  132   125   126    1
  133   127   128    1
  134   127   129    2
  135   127   130    1
  136   130   131    1
  137   130   132    2
  138   132   133    1
  139   132   134    1
  140   134   135    1
  141   134   136    1
  142   134   137    1
  143   137   138    1
  144   137   139    1
  145   137   140    1
  146   140   141    1
  147   140   142    1
  148   140   143    1
@<TRIPOS>SUBSTRUCTURE
       1 MOL1            1 RESIDUE      1      MOL     
       2 MOL1          143 RESIDUE      1      MOL     
@<SCITEGIC>MOL_PROPERTY
feprocess Rank
SciTegic.value.IntegerValue
96

@<SCITEGIC>MOL_PROPERTY
Conf_Id
SciTegic.value.IntegerValue
100

@<SCITEGIC>MOL_PROPERTY
Probability
SciTegic.value.DoubleValue
0.00

@<SCITEGIC>MOL_PROPERTY
G
SciTegic.value.DoubleValue
501.512

@<SCITEGIC>MOL_PROPERTY
E
SciTegic.value.DoubleValue
319.962

@<SCITEGIC>MOL_PROPERTY
-TS
SciTegic.value.DoubleValue
181.550

@<SCITEGIC>MOL_PROPERTY
U+W
SciTegic.value.DoubleValue
193.874

@<SCITEGIC>MOL_PROPERTY
U
SciTegic.value.DoubleValue
274.506

@<SCITEGIC>MOL_PROPERTY
W
SciTegic.value.DoubleValue
-80.632

@<SCITEGIC>MOL_PROPERTY
W(PB)
SciTegic.value.DoubleValue
-86.580

@<SCITEGIC>MOL_PROPERTY
W(SA)
SciTegic.value.DoubleValue
5.948

@<SCITEGIC>MOL_PROPERTY
Valence
SciTegic.value.DoubleValue
152.635

@<SCITEGIC>MOL_PROPERTY
Coulomb
SciTegic.value.DoubleValue
146.603

@<SCITEGIC>MOL_PROPERTY
VdW
SciTegic.value.DoubleValue
-24.733

@<SCITEGIC>MOL_PROPERTY
VdW6
SciTegic.value.DoubleValue
-179.473

@<SCITEGIC>MOL_PROPERTY
VdW12
SciTegic.value.DoubleValue
154.740

@<SCITEGIC>MOL_PROPERTY
Bond
SciTegic.value.DoubleValue
4.828

@<SCITEGIC>MOL_PROPERTY
Angle
SciTegic.value.DoubleValue
13.504

@<SCITEGIC>MOL_PROPERTY
Pdih
SciTegic.value.DoubleValue
134.291

@<SCITEGIC>MOL_PROPERTY
Idih
SciTegic.value.DoubleValue
0.012

@<SCITEGIC>MOL_PROPERTY
Tether
SciTegic.value.DoubleValue
0.000

@<TRIPOS>MOLECULE
CD_guest-s19_fast_vm2_rndm.mol2 : feprocess host+ligand conformer 97
         143         148           2
SMALL
USER_CHARGES
 
@<TRIPOS>ATOM
       1    C1      16.282966   15.340613   20.336593 C.3        1 MOL1         0.2972
       2    H1      15.274164   15.251140   19.913825 H          1 MOL1         0.0751
       3    O1      16.546451   16.690016   20.778263 O.3        1 MOL1        -0.3740
       4    C2      16.489101   14.337213   21.504608 C.3        1 MOL1         0.1003
       5    H2      16.376389   13.329064   21.085792 H          1 MOL1         0.0783
       6    O2      15.501055   14.517085   22.530733 O.3        1 MOL1        -0.5519
       7    H3      15.745795   15.344982   23.014161 H          1 MOL1         0.3769
       8    C3      17.930527   14.454933   22.065800 C.3        1 MOL1         0.1053
       9    H4      18.045233   15.451970   22.512932 H          1 MOL1         0.0783
      10    O3      18.160535   13.454596   23.062898 O.3        1 MOL1        -0.5519
      11    H5      18.776497   13.880513   23.716000 H          1 MOL1         0.3769
      12    C4      18.980971   14.305009   20.932046 C.3        1 MOL1         0.1018
      13    H6      18.980445   13.255733   20.609440 H          1 MOL1         0.0783
      14    C5      18.651613   15.225035   19.717872 C.3        1 MOL1         0.1043
      15    H7      18.795359   16.267533   20.031006 H          1 MOL1         0.0783
      16    O4      17.268211   15.024467   19.330467 O.3        1 MOL1        -0.3740
      17    C6      19.522910   15.011623   18.454014 C.3        1 MOL1         0.0138
      18    H8      20.416263   15.641488   18.534940 H          1 MOL1         0.0794
      19    H9      18.963071   15.373330   17.581203 H          1 MOL1         0.0794
      20    O5      19.909691   13.647935   18.254619 O.3        1 MOL1        -0.5486
      21    H10     20.746121   13.521227   18.757591 H          1 MOL1         0.3769
      22    C7      14.847308   20.242932   21.981435 C.3        1 MOL1         0.2972
      23    H11     14.215279   21.072345   22.324329 H          1 MOL1         0.0751
      24    O6      16.122918   20.705102   21.496015 O.3        1 MOL1        -0.3740
      25    C8      15.085080   19.233165   23.131611 C.3        1 MOL1         0.1003
      26    H12     14.108012   18.811815   23.401815 H          1 MOL1         0.0783
      27    O7      15.655325   19.867010   24.287195 O.3        1 MOL1        -0.5519
      28    H13     15.819783   20.812340   24.052366 H          1 MOL1         0.3769
      29    C9      15.988610   18.073688   22.656162 C.3        1 MOL1         0.1053
      30    H14     16.987737   18.481612   22.450063 H          1 MOL1         0.0783
      31    O8      16.072450   17.098935   23.699830 O.3        1 MOL1        -0.5519
      32    H15     16.302134   17.617156   24.503779 H          1 MOL1         0.3769
      33    C10     15.447652   17.426631   21.353694 C.3        1 MOL1         0.1018
      34    H16     14.601516   16.776238   21.610426 H          1 MOL1         0.0783
      35    C11     14.999212   18.474494   20.292832 C.3        1 MOL1         0.1043
      36    H17     15.903592   18.917597   19.856592 H          1 MOL1         0.0783
      37    O9      14.206995   19.525070   20.906372 O.3        1 MOL1        -0.3740
      38    C12     14.185645   17.866359   19.125254 C.3        1 MOL1         0.0138
      39    H18     14.863572   17.265586   18.504095 H          1 MOL1         0.0794
      40    H19     13.808915   18.685177   18.497686 H          1 MOL1         0.0794
      41    O10     13.100155   17.052543   19.586614 O.3        1 MOL1        -0.5486
      42    H20     12.583391   16.770658   18.800325 H          1 MOL1         0.3769
      43    C13     18.440230   24.124962   21.247923 C.3        1 MOL1         0.2972
      44    H21     18.825572   25.143432   21.110931 H          1 MOL1         0.0751
      45    O11     19.502678   23.183498   21.495819 O.3        1 MOL1        -0.3740
      46    C14     17.486365   24.089242   22.464855 C.3        1 MOL1         0.1003
      47    H22     16.656697   24.776765   22.254744 H          1 MOL1         0.0783
      48    O12     18.172654   24.523717   23.649395 O.3        1 MOL1        -0.5519
      49    H23     19.110227   24.225095   23.561827 H          1 MOL1         0.3769
      50    C15     16.894618   22.673454   22.664462 C.3        1 MOL1         0.1053
      51    H24     17.706067   21.996716   22.961105 H          1 MOL1         0.0783
      52    O13     15.905798   22.726009   23.696702 O.3        1 MOL1        -0.5519
      53    H25     16.309634   23.279464   24.403415 H          1 MOL1         0.3769
      54    C16     16.282228   22.127085   21.349267 C.3        1 MOL1         0.1018
      55    H26     15.325560   22.629092   21.156045 H          1 MOL1         0.0783
      56    C17     17.224579   22.325821   20.130880 C.3        1 MOL1         0.1043
      57    H27     18.078890   21.647653   20.255925 H          1 MOL1         0.0783
      58    O14     17.705609   23.692740   20.083413 O.3        1 MOL1        -0.3740
      59    C18     16.568770   21.979708   18.770301 C.3        1 MOL1         0.0138
      60    H28     16.508215   20.887276   18.679407 H          1 MOL1         0.0794
      61    H29     17.225775   22.334304   17.965135 H          1 MOL1         0.0794
      62    O15     15.262167   22.547700   18.621793 O.3        1 MOL1        -0.5486
      63    H30     14.648319   22.022662   19.179604 H          1 MOL1         0.3769
      64    C19     23.568871   22.587691   20.744538 C.3        1 MOL1         0.2972
      65    H31     24.610998   22.690661   20.415667 H          1 MOL1         0.0751
      66    O16     23.293274   21.253462   21.214679 O.3        1 MOL1        -0.3740
      67    C20     23.227533   23.611628   21.862508 C.3        1 MOL1         0.1003
      68    H32     23.373017   24.612810   21.436434 H          1 MOL1         0.0783
      69    O17     24.086774   23.467149   23.003262 O.3        1 MOL1        -0.5519
      70    H33     23.953024   22.550787   23.355601 H          1 MOL1         0.3769
      71    C21     21.741478   23.487064   22.280116 C.3        1 MOL1         0.1053
      72    H34     21.597193   22.504602   22.751093 H          1 MOL1         0.0783
      73    O18     21.411083   24.526371   23.208430 O.3        1 MOL1        -0.5519
      74    H35     22.141315   24.527184   23.865641 H          1 MOL1         0.3769
      75    C22     20.812500   23.575787   21.044369 C.3        1 MOL1         0.1018
      76    H36     20.829867   24.610280   20.677048 H          1 MOL1         0.0783
      77    C23     21.266449   22.616977   19.906664 C.3        1 MOL1         0.1043
      78    H37     21.118826   21.583913   20.248197 H          1 MOL1         0.0783
      79    O19     22.674049   22.841854   19.639510 O.3        1 MOL1        -0.3740
      80    C24     20.495255   22.762291   18.569440 C.3        1 MOL1         0.0138
      81    H38     19.617786   22.105500   18.599513 H          1 MOL1         0.0794
      82    H39     21.135789   22.394210   17.756891 H          1 MOL1         0.0794
      83    O20     20.080544   24.105107   18.295455 O.3        1 MOL1        -0.5486
      84    H40     19.235717   24.243532   18.783205 H          1 MOL1         0.3769
      85    C25     24.939232   17.659909   22.316929 C.3        1 MOL1         0.2972
      86    H41     25.550788   16.805291   22.634483 H          1 MOL1         0.0751
      87    O21     23.630424   17.249480   21.876765 O.3        1 MOL1        -0.3740
      88    C26     24.771780   18.661302   23.484804 C.3        1 MOL1         0.1003
      89    H42     25.766563   19.056642   23.728210 H          1 MOL1         0.0783
      90    O22     24.221946   18.021377   24.646797 O.3        1 MOL1        -0.5519
      91    H43     23.865133   17.146521   24.356697 H          1 MOL1         0.3769
      92    C27     23.879628   19.843139   23.048285 C.3        1 MOL1         0.1053
      93    H44     22.874464   19.450409   22.850729 H          1 MOL1         0.0783
      94    O23     23.823709   20.806125   24.104973 O.3        1 MOL1        -0.5519
      95    H45     23.638033   20.275419   24.912085 H          1 MOL1         0.3769
      96    C28     24.400138   20.498692   21.744587 C.3        1 MOL1         0.1018
      97    H46     25.258906   21.137705   21.989635 H          1 MOL1         0.0783
      98    C29     24.795394   19.456878   20.655087 C.3        1 MOL1         0.1043
      99    H47     23.866821   19.052452   20.233030 H          1 MOL1         0.0783
     100    O24     25.565416   18.364274   21.224194 O.3        1 MOL1        -0.3740
     101    C30     25.599151   20.063223   19.480190 C.3        1 MOL1         0.0138
     102    H48     24.925320   20.695366   18.886187 H          1 MOL1         0.0794
     103    H49     25.937885   19.246437   18.828665 H          1 MOL1         0.0794
     104    O25     26.717380   20.836303   19.933020 O.3        1 MOL1        -0.5486
     105    H50     27.226261   21.116858   19.141120 H          1 MOL1         0.3769
     106    C31     21.373947   13.815434   21.232961 C.3        1 MOL1         0.2972
     107    H51     21.040552   12.797434   20.995356 H          1 MOL1         0.0751
     108    O26     20.253323   14.688341   21.497757 O.3        1 MOL1        -0.3740
     109    C32     22.286104   13.782064   22.485958 C.3        1 MOL1         0.1003
     110    H52     23.167809   13.182161   22.226546 H          1 MOL1         0.0783
     111    O27     21.620396   13.156592   23.593164 O.3        1 MOL1        -0.5519
     112    H53     20.988727   13.819029   23.979748 H          1 MOL1         0.3769
     113    C33     22.770583   15.211511   22.830780 C.3        1 MOL1         0.1053
     114    H54     21.893641   15.828977   23.056466 H          1 MOL1         0.0783
     115    O28     23.654015   15.187388   23.958298 O.3        1 MOL1        -0.5519
     116    H55     23.084931   14.932007   24.732363 H          1 MOL1         0.3769
     117    C34     23.462725   15.848349   21.604026 C.3        1 MOL1         0.1018
     118    H56     24.421233   15.343279   21.426446 H          1 MOL1         0.0783
     119    C35     22.577476   15.744908   20.331875 C.3        1 MOL1         0.1043
     120    H57     21.692246   16.376594   20.484906 H          1 MOL1         0.0783
     121    O29     22.149306   14.370307   20.143855 O.3        1 MOL1        -0.3740
     122    C36     23.270189   16.247405   19.037344 C.3        1 MOL1         0.0138
     123    H58     23.083358   17.324783   18.942242 H          1 MOL1         0.0794
     124    H59     22.796313   15.764165   18.172721 H          1 MOL1         0.0794
     125    O30     24.682851   16.007232   19.020638 O.3        1 MOL1        -0.5486
     126    H60     25.089231   16.614791   19.679610 H          1 MOL1         0.3769
     127    C1      20.618021   15.739954   25.293862 C.2        1 MOL1         0.6173
     128    O1      19.804115   15.046676   24.711086 O.co2      1 MOL1        -0.6755
     129    O2      21.546075   15.263086   25.918122 O.co2      1 MOL1        -0.6755
     130    C2      20.638346   17.210614   25.067224 C.2        1 MOL1        -0.1504
     131    H1      21.447416   17.748994   25.555465 H          1 MOL1         0.0814
     132    C3      19.758133   17.877879   24.286178 C.2        1 MOL1        -0.1394
     133    H2      18.949520   17.354249   23.778111 H          1 MOL1         0.0817
     134    C4      19.853594   19.367458   24.028867 C.3        1 MOL1        -0.1849
     135    H3      19.246702   19.642907   23.156123 H          1 MOL1         0.0736
     136    H4      20.889605   19.620515   23.777081 H          1 MOL1         0.0736
     137    C5      19.411403   20.200701   25.249672 C.3        1 MOL1        -0.1866
     138    H5      18.318635   20.151393   25.350719 H          1 MOL1         0.0738
     139    H6      19.835144   19.773366   26.168581 H          1 MOL1         0.0738
     140    C6      19.868116   21.669015   25.128316 C.3        1 MOL1        -0.2879
     141    H7      19.530680   22.111287   24.185750 H          1 MOL1         0.0750
     142    H8      19.466653   22.271501   25.953008 H          1 MOL1         0.0750
     143    H9      20.963303   21.739529   25.158242 H          1 MOL1         0.0750
@<TRIPOS>BOND
    1     1     2    1
    2     1     3    1
    3     1     4    1
    4     4     5    1
    5     4     6    1
    6     6     7    1
    7     4     8    1
    8     8     9    1
    9     8    10    1
   10    10    11    1
   11     8    12    1
   12    12    13    1
   13    12    14    1
   14    14    15    1
   15     1    16    1
   16    14    16    1
   17    14    17    1
   18    17    18    1
   19    17    19    1
   20    17    20    1
   21    20    21    1
   22    22    23    1
   23    22    24    1
   24    22    25    1
   25    25    26    1
   26    25    27    1
   27    27    28    1
   28    25    29    1
   29    29    30    1
   30    29    31    1
   31    31    32    1
   32     3    33    1
   33    29    33    1
   34    33    34    1
   35    33    35    1
   36    35    36    1
   37    22    37    1
   38    35    37    1
   39    35    38    1
   40    38    39    1
   41    38    40    1
   42    38    41    1
   43    41    42    1
   44    43    44    1
   45    43    45    1
   46    43    46    1
   47    46    47    1
   48    46    48    1
   49    48    49    1
   50    46    50    1
   51    50    51    1
   52    50    52    1
   53    52    53    1
   54    24    54    1
   55    50    54    1
   56    54    55    1
   57    54    56    1
   58    56    57    1
   59    43    58    1
   60    56    58    1
   61    56    59    1
   62    59    60    1
   63    59    61    1
   64    59    62    1
   65    62    63    1
   66    64    65    1
   67    64    66    1
   68    64    67    1
   69    67    68    1
   70    67    69    1
   71    69    70    1
   72    67    71    1
   73    71    72    1
   74    71    73    1
   75    73    74    1
   76    45    75    1
   77    71    75    1
   78    75    76    1
   79    75    77    1
   80    77    78    1
   81    64    79    1
   82    77    79    1
   83    77    80    1
   84    80    81    1
   85    80    82    1
   86    80    83    1
   87    83    84    1
   88    85    86    1
   89    85    87    1
   90    85    88    1
   91    88    89    1
   92    88    90    1
   93    90    91    1
   94    88    92    1
   95    92    93    1
   96    92    94    1
   97    94    95    1
   98    66    96    1
   99    92    96    1
  100    96    97    1
  101    96    98    1
  102    98    99    1
  103    85   100    1
  104    98   100    1
  105    98   101    1
  106   101   102    1
  107   101   103    1
  108   101   104    1
  109   104   105    1
  110   106   107    1
  111    12   108    1
  112   106   108    1
  113   106   109    1
  114   109   110    1
  115   109   111    1
  116   111   112    1
  117   109   113    1
  118   113   114    1
  119   113   115    1
  120   115   116    1
  121    87   117    1
  122   113   117    1
  123   117   118    1
  124   117   119    1
  125   119   120    1
  126   106   121    1
  127   119   121    1
  128   119   122    1
  129   122   123    1
  130   122   124    1
  131   122   125    1
  132   125   126    1
  133   127   128    1
  134   127   129    2
  135   127   130    1
  136   130   131    1
  137   130   132    2
  138   132   133    1
  139   132   134    1
  140   134   135    1
  141   134   136    1
  142   134   137    1
  143   137   138    1
  144   137   139    1
  145   137   140    1
  146   140   141    1
  147   140   142    1
  148   140   143    1
@<TRIPOS>SUBSTRUCTURE
       1 MOL1            1 RESIDUE      1      MOL     
       2 MOL1          143 RESIDUE      1      MOL     
@<SCITEGIC>MOL_PROPERTY
feprocess Rank
SciTegic.value.IntegerValue
97

@<SCITEGIC>MOL_PROPERTY
Conf_Id
SciTegic.value.IntegerValue
418

@<SCITEGIC>MOL_PROPERTY
Probability
SciTegic.value.DoubleValue
0.00

@<SCITEGIC>MOL_PROPERTY
G
SciTegic.value.DoubleValue
501.562

@<SCITEGIC>MOL_PROPERTY
E
SciTegic.value.DoubleValue
320.083

@<SCITEGIC>MOL_PROPERTY
-TS
SciTegic.value.DoubleValue
181.479

@<SCITEGIC>MOL_PROPERTY
U+W
SciTegic.value.DoubleValue
193.995

@<SCITEGIC>MOL_PROPERTY
U
SciTegic.value.DoubleValue
270.154

@<SCITEGIC>MOL_PROPERTY
W
SciTegic.value.DoubleValue
-76.159

@<SCITEGIC>MOL_PROPERTY
W(PB)
SciTegic.value.DoubleValue
-82.334

@<SCITEGIC>MOL_PROPERTY
W(SA)
SciTegic.value.DoubleValue
6.175

@<SCITEGIC>MOL_PROPERTY
Valence
SciTegic.value.DoubleValue
150.907

@<SCITEGIC>MOL_PROPERTY
Coulomb
SciTegic.value.DoubleValue
137.862

@<SCITEGIC>MOL_PROPERTY
VdW
SciTegic.value.DoubleValue
-18.616

@<SCITEGIC>MOL_PROPERTY
VdW6
SciTegic.value.DoubleValue
-174.846

@<SCITEGIC>MOL_PROPERTY
VdW12
SciTegic.value.DoubleValue
156.231

@<SCITEGIC>MOL_PROPERTY
Bond
SciTegic.value.DoubleValue
5.052

@<SCITEGIC>MOL_PROPERTY
Angle
SciTegic.value.DoubleValue
14.738

@<SCITEGIC>MOL_PROPERTY
Pdih
SciTegic.value.DoubleValue
131.037

@<SCITEGIC>MOL_PROPERTY
Idih
SciTegic.value.DoubleValue
0.079

@<SCITEGIC>MOL_PROPERTY
Tether
SciTegic.value.DoubleValue
0.000

@<TRIPOS>MOLECULE
CD_guest-s19_fast_vm2_rndm.mol2 : feprocess host+ligand conformer 98
         143         148           2
SMALL
USER_CHARGES
 
@<TRIPOS>ATOM
       1    C1      16.045243   15.228442   20.707595 C.3        1 MOL1         0.2972
       2    H1      15.069083   15.022200   20.250328 H          1 MOL1         0.0751
       3    O1      15.932951   16.268607   21.695424 O.3        1 MOL1        -0.3740
       4    C2      16.590526   13.937921   21.388875 C.3        1 MOL1         0.1003
       5    H2      16.575136   13.150030   20.624858 H          1 MOL1         0.0783
       6    O2      15.757702   13.536190   22.487841 O.3        1 MOL1        -0.5519
       7    H3      15.898378   14.202059   23.214596 H          1 MOL1         0.3769
       8    C3      18.054091   14.092105   21.875163 C.3        1 MOL1         0.1053
       9    H4      18.061968   14.772534   22.733392 H          1 MOL1         0.0783
      10    O3      18.568215   12.815613   22.270621 O.3        1 MOL1        -0.5519
      11    H5      17.874550   12.426180   22.848253 H          1 MOL1         0.3769
      12    C4      18.948054   14.707923   20.776381 C.3        1 MOL1         0.1018
      13    H6      19.059836   13.984549   19.957489 H          1 MOL1         0.0783
      14    C5      18.315396   16.003602   20.212142 C.3        1 MOL1         0.1043
      15    H7      18.226254   16.739255   21.021880 H          1 MOL1         0.0783
      16    O4      17.002108   15.661995   19.711604 O.3        1 MOL1        -0.3740
      17    C6      19.123063   16.674640   19.072238 C.3        1 MOL1         0.0138
      18    H8      19.863928   17.346955   19.522546 H          1 MOL1         0.0794
      19    H9      18.441795   17.303095   18.483593 H          1 MOL1         0.0794
      20    O5      19.782784   15.730949   18.219161 O.3        1 MOL1        -0.5486
      21    H10     20.494747   15.303140   18.749055 H          1 MOL1         0.3769
      22    C7      14.580279   20.169163   21.679260 C.3        1 MOL1         0.2972
      23    H11     14.016162   21.110511   21.663496 H          1 MOL1         0.0751
      24    O6      16.004959   20.403572   21.733613 O.3        1 MOL1        -0.3740
      25    C8      14.139542   19.335755   22.901747 C.3        1 MOL1         0.1003
      26    H12     13.070369   19.114570   22.790097 H          1 MOL1         0.0783
      27    O7      14.342890   20.100936   24.101361 O.3        1 MOL1        -0.5519
      28    H13     15.098016   20.715797   23.929986 H          1 MOL1         0.3769
      29    C9      14.900594   17.990821   22.941144 C.3        1 MOL1         0.1053
      30    H14     15.946125   18.233978   23.160159 H          1 MOL1         0.0783
      31    O8      14.369881   17.143478   23.969532 O.3        1 MOL1        -0.5519
      32    H15     15.034011   16.421370   24.115818 H          1 MOL1         0.3769
      33    C10     14.850734   17.227205   21.587177 C.3        1 MOL1         0.1018
      34    H16     13.884418   16.710832   21.524004 H          1 MOL1         0.0783
      35    C11     15.033396   18.158002   20.338323 C.3        1 MOL1         0.1043
      36    H17     16.102874   18.380528   20.238004 H          1 MOL1         0.0783
      37    O9      14.300228   19.400010   20.499578 O.3        1 MOL1        -0.3740
      38    C12     14.532337   17.567711   18.992612 C.3        1 MOL1         0.0138
      39    H18     15.259645   16.849179   18.602252 H          1 MOL1         0.0794
      40    H19     14.481552   18.382399   18.257459 H          1 MOL1         0.0794
      41    O10     13.249158   16.942567   19.117224 O.3        1 MOL1        -0.5486
      42    H20     12.958409   16.676648   18.217683 H          1 MOL1         0.3769
      43    C13     18.541241   23.730547   21.074557 C.3        1 MOL1         0.2972
      44    H21     18.833779   24.744684   20.774647 H          1 MOL1         0.0751
      45    O11     19.682508   22.955228   21.485039 O.3        1 MOL1        -0.3740
      46    C14     17.569008   23.812050   22.280879 C.3        1 MOL1         0.1003
      47    H22     16.731494   24.455997   21.982552 H          1 MOL1         0.0783
      48    O12     18.228970   24.394315   23.416714 O.3        1 MOL1        -0.5519
      49    H23     19.182967   24.140095   23.354409 H          1 MOL1         0.3769
      50    C15     16.990624   22.422522   22.644134 C.3        1 MOL1         0.1053
      51    H24     17.804649   21.795904   23.033882 H          1 MOL1         0.0783
      52    O13     15.972633   22.580874   23.637209 O.3        1 MOL1        -0.5519
      53    H25     16.363029   23.185628   24.307059 H          1 MOL1         0.3769
      54    C16     16.407999   21.743950   21.382653 C.3        1 MOL1         0.1018
      55    H26     15.559318   22.343111   21.026547 H          1 MOL1         0.0783
      56    C17     17.469967   21.687633   20.254371 C.3        1 MOL1         0.1043
      57    H27     18.324594   21.097833   20.608153 H          1 MOL1         0.0783
      58    O14     17.898621   23.044649   19.975629 O.3        1 MOL1        -0.3740
      59    C18     16.977116   21.043514   18.933090 C.3        1 MOL1         0.0138
      60    H28     17.100997   19.956067   19.008653 H          1 MOL1         0.0794
      61    H29     17.626855   21.381571   18.115163 H          1 MOL1         0.0794
      62    O15     15.610835   21.351314   18.632298 O.3        1 MOL1        -0.5486
      63    H30     15.051584   20.797063   19.225138 H          1 MOL1         0.3769
      64    C19     23.798761   22.693660   20.921566 C.3        1 MOL1         0.2972
      65    H31     24.851718   22.847178   20.652117 H          1 MOL1         0.0751
      66    O16     23.559698   21.361647   21.411267 O.3        1 MOL1        -0.3740
      67    C20     23.342259   23.694502   22.014939 C.3        1 MOL1         0.1003
      68    H32     23.446129   24.704478   21.597571 H          1 MOL1         0.0783
      69    O17     24.154639   23.588977   23.194743 O.3        1 MOL1        -0.5519
      70    H33     24.149592   22.638133   23.473892 H          1 MOL1         0.3769
      71    C21     21.848744   23.471809   22.362761 C.3        1 MOL1         0.1053
      72    H34     21.751547   22.491728   22.848885 H          1 MOL1         0.0783
      73    O18     21.404990   24.498120   23.257107 O.3        1 MOL1        -0.5519
      74    H35     22.107963   24.564776   23.940890 H          1 MOL1         0.3769
      75    C22     20.967832   23.474473   21.087821 C.3        1 MOL1         0.1018
      76    H36     20.902304   24.510396   20.730561 H          1 MOL1         0.0783
      77    C23     21.549706   22.576145   19.957836 C.3        1 MOL1         0.1043
      78    H37     21.459916   21.529577   20.267617 H          1 MOL1         0.0783
      79    O19     22.951332   22.895129   19.768338 O.3        1 MOL1        -0.3740
      80    C24     20.829915   22.686610   18.590226 C.3        1 MOL1         0.0138
      81    H38     19.968239   22.007049   18.596624 H          1 MOL1         0.0794
      82    H39     21.511953   22.327482   17.808106 H          1 MOL1         0.0794
      83    O20     20.390202   24.014868   18.286735 O.3        1 MOL1        -0.5486
      84    H40     19.469163   24.088106   18.622857 H          1 MOL1         0.3769
      85    C25     25.129616   17.697654   22.234579 C.3        1 MOL1         0.2972
      86    H41     25.708020   16.792703   22.461872 H          1 MOL1         0.0751
      87    O21     23.758245   17.390939   21.920609 O.3        1 MOL1        -0.3740
      88    C26     25.139659   18.653370   23.449601 C.3        1 MOL1         0.1003
      89    H42     26.177614   18.968117   23.618963 H          1 MOL1         0.0783
      90    O22     24.646639   17.983062   24.620664 O.3        1 MOL1        -0.5519
      91    H43     24.132101   17.200372   24.305213 H          1 MOL1         0.3769
      92    C27     24.295921   19.912975   23.149825 C.3        1 MOL1         0.1053
      93    H44     23.246399   19.601507   23.076059 H          1 MOL1         0.0783
      94    O23     24.438172   20.848789   24.222988 O.3        1 MOL1        -0.5519
      95    H45     24.316376   20.313498   25.038921 H          1 MOL1         0.3769
      96    C28     24.699181   20.578554   21.808266 C.3        1 MOL1         0.1018
      97    H46     25.591428   21.196507   21.974705 H          1 MOL1         0.0783
      98    C29     24.946444   19.561193   20.655584 C.3        1 MOL1         0.1043
      99    H47     23.963658   19.226615   20.303799 H          1 MOL1         0.0783
     100    O24     25.695805   18.404736   21.112381 O.3        1 MOL1        -0.3740
     101    C30     25.677029   20.172076   19.436328 C.3        1 MOL1         0.0138
     102    H48     24.992811   20.868324   18.932683 H          1 MOL1         0.0794
     103    H49     25.904979   19.367396   18.724324 H          1 MOL1         0.0794
     104    O25     26.876811   20.857845   19.814828 O.3        1 MOL1        -0.5486
     105    H50     27.324262   21.152336   18.991584 H          1 MOL1         0.3769
     106    C31     21.295895   14.142295   21.049772 C.3        1 MOL1         0.2972
     107    H51     20.922406   13.158795   20.735659 H          1 MOL1         0.0751
     108    O26     20.213275   15.034967   21.377576 O.3        1 MOL1        -0.3740
     109    C32     22.193474   13.982747   22.303426 C.3        1 MOL1         0.1003
     110    H52     23.021564   13.314866   22.032757 H          1 MOL1         0.0783
     111    O27     21.448882   13.398915   23.383972 O.3        1 MOL1        -0.5519
     112    H53     20.494281   13.464732   23.137650 H          1 MOL1         0.3769
     113    C33     22.795160   15.341794   22.730968 C.3        1 MOL1         0.1053
     114    H54     21.973193   15.981395   23.077213 H          1 MOL1         0.0783
     115    O28     23.732507   15.142630   23.793793 O.3        1 MOL1        -0.5519
     116    H55     23.281415   14.527800   24.414975 H          1 MOL1         0.3769
     117    C34     23.484277   16.035921   21.531104 C.3        1 MOL1         0.1018
     118    H56     24.399760   15.486685   21.274220 H          1 MOL1         0.0783
     119    C35     22.555971   16.092639   20.288838 C.3        1 MOL1         0.1043
     120    H57     21.708468   16.741769   20.537210 H          1 MOL1         0.0783
     121    O29     22.068043   14.759129   19.994784 O.3        1 MOL1        -0.3740
     122    C36     23.215558   16.678816   19.012723 C.3        1 MOL1         0.0138
     123    H58     23.028995   17.759598   18.991591 H          1 MOL1         0.0794
     124    H59     22.714239   16.257167   18.131245 H          1 MOL1         0.0794
     125    O30     24.625706   16.433213   18.939866 O.3        1 MOL1        -0.5486
     126    H60     25.054812   16.978638   19.639477 H          1 MOL1         0.3769
     127    C1      17.259098   15.994964   25.206124 C.2        1 MOL1         0.6173
     128    O1      17.483345   15.969993   26.401076 O.co2      1 MOL1        -0.6755
     129    O2      16.456088   15.262686   24.653616 O.co2      1 MOL1        -0.6755
     130    C2      17.939103   17.001412   24.350025 C.2        1 MOL1        -0.1504
     131    H1      17.713640   16.941848   23.292934 H          1 MOL1         0.0814
     132    C3      18.762696   17.977719   24.786638 C.2        1 MOL1        -0.1394
     133    H2      19.009651   18.084888   25.842279 H          1 MOL1         0.0817
     134    C4      19.337225   19.013783   23.845164 C.3        1 MOL1        -0.1849
     135    H3      19.759386   19.852454   24.414573 H          1 MOL1         0.0736
     136    H4      18.524470   19.430027   23.234532 H          1 MOL1         0.0736
     137    C5      20.418667   18.416414   22.922369 C.3        1 MOL1        -0.1866
     138    H5      21.313661   18.185112   23.515035 H          1 MOL1         0.0738
     139    H6      20.066722   17.471252   22.491519 H          1 MOL1         0.0738
     140    C6      20.778157   19.387144   21.784175 C.3        1 MOL1        -0.2879
     141    H7      21.071091   20.360127   22.195090 H          1 MOL1         0.0750
     142    H8      21.614866   19.003781   21.189031 H          1 MOL1         0.0750
     143    H9      19.923194   19.538717   21.115326 H          1 MOL1         0.0750
@<TRIPOS>BOND
    1     1     2    1
    2     1     3    1
    3     1     4    1
    4     4     5    1
    5     4     6    1
    6     6     7    1
    7     4     8    1
    8     8     9    1
    9     8    10    1
   10    10    11    1
   11     8    12    1
   12    12    13    1
   13    12    14    1
   14    14    15    1
   15     1    16    1
   16    14    16    1
   17    14    17    1
   18    17    18    1
   19    17    19    1
   20    17    20    1
   21    20    21    1
   22    22    23    1
   23    22    24    1
   24    22    25    1
   25    25    26    1
   26    25    27    1
   27    27    28    1
   28    25    29    1
   29    29    30    1
   30    29    31    1
   31    31    32    1
   32     3    33    1
   33    29    33    1
   34    33    34    1
   35    33    35    1
   36    35    36    1
   37    22    37    1
   38    35    37    1
   39    35    38    1
   40    38    39    1
   41    38    40    1
   42    38    41    1
   43    41    42    1
   44    43    44    1
   45    43    45    1
   46    43    46    1
   47    46    47    1
   48    46    48    1
   49    48    49    1
   50    46    50    1
   51    50    51    1
   52    50    52    1
   53    52    53    1
   54    24    54    1
   55    50    54    1
   56    54    55    1
   57    54    56    1
   58    56    57    1
   59    43    58    1
   60    56    58    1
   61    56    59    1
   62    59    60    1
   63    59    61    1
   64    59    62    1
   65    62    63    1
   66    64    65    1
   67    64    66    1
   68    64    67    1
   69    67    68    1
   70    67    69    1
   71    69    70    1
   72    67    71    1
   73    71    72    1
   74    71    73    1
   75    73    74    1
   76    45    75    1
   77    71    75    1
   78    75    76    1
   79    75    77    1
   80    77    78    1
   81    64    79    1
   82    77    79    1
   83    77    80    1
   84    80    81    1
   85    80    82    1
   86    80    83    1
   87    83    84    1
   88    85    86    1
   89    85    87    1
   90    85    88    1
   91    88    89    1
   92    88    90    1
   93    90    91    1
   94    88    92    1
   95    92    93    1
   96    92    94    1
   97    94    95    1
   98    66    96    1
   99    92    96    1
  100    96    97    1
  101    96    98    1
  102    98    99    1
  103    85   100    1
  104    98   100    1
  105    98   101    1
  106   101   102    1
  107   101   103    1
  108   101   104    1
  109   104   105    1
  110   106   107    1
  111    12   108    1
  112   106   108    1
  113   106   109    1
  114   109   110    1
  115   109   111    1
  116   111   112    1
  117   109   113    1
  118   113   114    1
  119   113   115    1
  120   115   116    1
  121    87   117    1
  122   113   117    1
  123   117   118    1
  124   117   119    1
  125   119   120    1
  126   106   121    1
  127   119   121    1
  128   119   122    1
  129   122   123    1
  130   122   124    1
  131   122   125    1
  132   125   126    1
  133   127   128    1
  134   127   129    2
  135   127   130    1
  136   130   131    1
  137   130   132    2
  138   132   133    1
  139   132   134    1
  140   134   135    1
  141   134   136    1
  142   134   137    1
  143   137   138    1
  144   137   139    1
  145   137   140    1
  146   140   141    1
  147   140   142    1
  148   140   143    1
@<TRIPOS>SUBSTRUCTURE
       1 MOL1            1 RESIDUE      1      MOL     
       2 MOL1          143 RESIDUE      1      MOL     
@<SCITEGIC>MOL_PROPERTY
feprocess Rank
SciTegic.value.IntegerValue
98

@<SCITEGIC>MOL_PROPERTY
Conf_Id
SciTegic.value.IntegerValue
202

@<SCITEGIC>MOL_PROPERTY
Probability
SciTegic.value.DoubleValue
0.00

@<SCITEGIC>MOL_PROPERTY
G
SciTegic.value.DoubleValue
501.563

@<SCITEGIC>MOL_PROPERTY
E
SciTegic.value.DoubleValue
318.964

@<SCITEGIC>MOL_PROPERTY
-TS
SciTegic.value.DoubleValue
182.599

@<SCITEGIC>MOL_PROPERTY
U+W
SciTegic.value.DoubleValue
192.876

@<SCITEGIC>MOL_PROPERTY
U
SciTegic.value.DoubleValue
276.771

@<SCITEGIC>MOL_PROPERTY
W
SciTegic.value.DoubleValue
-83.895

@<SCITEGIC>MOL_PROPERTY
W(PB)
SciTegic.value.DoubleValue
-89.956

@<SCITEGIC>MOL_PROPERTY
W(SA)
SciTegic.value.DoubleValue
6.061

@<SCITEGIC>MOL_PROPERTY
Valence
SciTegic.value.DoubleValue
152.091

@<SCITEGIC>MOL_PROPERTY
Coulomb
SciTegic.value.DoubleValue
148.993

@<SCITEGIC>MOL_PROPERTY
VdW
SciTegic.value.DoubleValue
-24.313

@<SCITEGIC>MOL_PROPERTY
VdW6
SciTegic.value.DoubleValue
-179.312

@<SCITEGIC>MOL_PROPERTY
VdW12
SciTegic.value.DoubleValue
154.999

@<SCITEGIC>MOL_PROPERTY
Bond
SciTegic.value.DoubleValue
4.999

@<SCITEGIC>MOL_PROPERTY
Angle
SciTegic.value.DoubleValue
14.977

@<SCITEGIC>MOL_PROPERTY
Pdih
SciTegic.value.DoubleValue
132.101

@<SCITEGIC>MOL_PROPERTY
Idih
SciTegic.value.DoubleValue
0.013

@<SCITEGIC>MOL_PROPERTY
Tether
SciTegic.value.DoubleValue
0.000

@<TRIPOS>MOLECULE
CD_guest-s19_fast_vm2_rndm.mol2 : feprocess host+ligand conformer 99
         143         148           2
SMALL
USER_CHARGES
 
@<TRIPOS>ATOM
       1    C1      16.266864   15.391605   20.024383 C.3        1 MOL1         0.2972
       2    H1      15.298438   15.388468   19.507811 H          1 MOL1         0.0751
       3    O1      16.514387   16.650967   20.682200 O.3        1 MOL1        -0.3740
       4    C2      16.367375   14.232028   21.050643 C.3        1 MOL1         0.1003
       5    H2      16.303106   13.293323   20.485091 H          1 MOL1         0.0783
       6    O2      15.300642   14.269620   22.010489 O.3        1 MOL1        -0.5519
       7    H3      15.407626   15.107730   22.527774 H          1 MOL1         0.3769
       8    C3      17.740006   14.265772   21.764240 C.3        1 MOL1         0.1053
       9    H4      17.768803   15.171213   22.382885 H          1 MOL1         0.0783
      10    O3      17.876593   13.110172   22.597456 O.3        1 MOL1        -0.5519
      11    H5      17.028199   13.042152   23.088233 H          1 MOL1         0.3769
      12    C4      18.917818   14.328489   20.755259 C.3        1 MOL1         0.1018
      13    H6      19.053900   13.325798   20.329808 H          1 MOL1         0.0783
      14    C5      18.679978   15.356393   19.607351 C.3        1 MOL1         0.1043
      15    H7      18.782502   16.365050   20.028819 H          1 MOL1         0.0783
      16    O4      17.338787   15.192640   19.078218 O.3        1 MOL1        -0.3740
      17    C6      19.673878   15.272721   18.419162 C.3        1 MOL1         0.0138
      18    H8      20.505240   15.960824   18.610329 H          1 MOL1         0.0794
      19    H9      19.168006   15.639426   17.515973 H          1 MOL1         0.0794
      20    O5      20.183619   13.954418   18.190368 O.3        1 MOL1        -0.5486
      21    H10     20.892885   13.805507   18.858114 H          1 MOL1         0.3769
      22    C7      14.945916   20.150601   22.114908 C.3        1 MOL1         0.2972
      23    H11     14.337674   20.983419   22.491493 H          1 MOL1         0.0751
      24    O6      16.310839   20.553102   21.884109 O.3        1 MOL1        -0.3740
      25    C8      14.943582   18.998306   23.144237 C.3        1 MOL1         0.1003
      26    H12     13.906506   18.656274   23.256532 H          1 MOL1         0.0783
      27    O7      15.431197   19.459264   24.414414 O.3        1 MOL1        -0.5519
      28    H13     15.942620   20.286357   24.241285 H          1 MOL1         0.3769
      29    C9      15.787256   17.808289   22.634966 C.3        1 MOL1         0.1053
      30    H14     16.839167   18.122858   22.612886 H          1 MOL1         0.0783
      31    O8      15.630691   16.708216   23.536282 O.3        1 MOL1        -0.5519
      32    H15     15.797554   17.091728   24.426140 H          1 MOL1         0.3769
      33    C10     15.387549   17.383674   21.198215 C.3        1 MOL1         0.1018
      34    H16     14.476346   16.772728   21.243285 H          1 MOL1         0.0783
      35    C11     15.182380   18.592470   20.240218 C.3        1 MOL1         0.1043
      36    H17     16.176979   18.982468   19.993049 H          1 MOL1         0.0783
      37    O9      14.410912   19.645458   20.874263 O.3        1 MOL1        -0.3740
      38    C12     14.497343   18.216219   18.904870 C.3        1 MOL1         0.0138
      39    H18     15.201930   17.622837   18.306650 H          1 MOL1         0.0794
      40    H19     14.290012   19.137806   18.344348 H          1 MOL1         0.0794
      41    O10     13.288819   17.474378   19.109192 O.3        1 MOL1        -0.5486
      42    H20     12.867661   17.342357   18.231744 H          1 MOL1         0.3769
      43    C13     18.550843   24.070836   21.501405 C.3        1 MOL1         0.2972
      44    H21     18.839941   25.117153   21.340627 H          1 MOL1         0.0751
      45    O11     19.715125   23.238929   21.699195 O.3        1 MOL1        -0.3740
      46    C14     17.622388   23.977989   22.743504 C.3        1 MOL1         0.1003
      47    H22     16.727247   24.569076   22.510220 H          1 MOL1         0.0783
      48    O12     18.230665   24.535012   23.916928 O.3        1 MOL1        -0.5519
      49    H23     19.052904   24.010696   24.118473 H          1 MOL1         0.3769
      50    C15     17.163095   22.521800   22.986081 C.3        1 MOL1         0.1053
      51    H24     18.043153   21.911124   23.227147 H          1 MOL1         0.0783
      52    O13     16.227746   22.481570   24.069054 O.3        1 MOL1        -0.5519
      53    H25     16.621463   23.053471   24.765497 H          1 MOL1         0.3769
      54    C16     16.507432   21.966449   21.700273 C.3        1 MOL1         0.1018
      55    H26     15.557729   22.493488   21.538184 H          1 MOL1         0.0783
      56    C17     17.410924   22.170471   20.454582 C.3        1 MOL1         0.1043
      57    H27     18.305916   21.547095   20.580997 H          1 MOL1         0.0783
      58    O14     17.808021   23.565065   20.367524 O.3        1 MOL1        -0.3740
      59    C18     16.745290   21.762160   19.112047 C.3        1 MOL1         0.0138
      60    H28     16.972938   20.706947   18.917639 H          1 MOL1         0.0794
      61    H29     17.207327   22.338851   18.299918 H          1 MOL1         0.0794
      62    O15     15.325719   21.958415   19.096168 O.3        1 MOL1        -0.5486
      63    H30     14.927894   21.279031   19.689370 H          1 MOL1         0.3769
      64    C19     23.604798   22.558428   20.384144 C.3        1 MOL1         0.2972
      65    H31     24.598680   22.573789   19.918811 H          1 MOL1         0.0751
      66    O16     23.315779   21.271406   20.968681 O.3        1 MOL1        -0.3740
      67    C20     23.464794   23.677060   21.448147 C.3        1 MOL1         0.1003
      68    H32     23.569961   24.635971   20.924766 H          1 MOL1         0.0783
      69    O17     24.498682   23.579291   22.439783 O.3        1 MOL1        -0.5519
      70    H33     24.282576   22.790848   22.997251 H          1 MOL1         0.3769
      71    C21     22.050295   23.638703   22.084120 C.3        1 MOL1         0.1053
      72    H34     21.967821   22.709874   22.665393 H          1 MOL1         0.0783
      73    O18     21.869284   24.765078   22.948304 O.3        1 MOL1        -0.5519
      74    H35     21.324615   24.419582   23.703845 H          1 MOL1         0.3769
      75    C22     20.925656   23.639973   21.010036 C.3        1 MOL1         0.1018
      76    H36     20.847256   24.661040   20.615025 H          1 MOL1         0.0783
      77    C23     21.218891   22.650389   19.836743 C.3        1 MOL1         0.1043
      78    H37     21.074014   21.627999   20.209825 H          1 MOL1         0.0783
      79    O19     22.590360   22.810820   19.393298 O.3        1 MOL1        -0.3740
      80    C24     20.328068   22.800430   18.576711 C.3        1 MOL1         0.0138
      81    H38     19.473170   22.123513   18.669995 H          1 MOL1         0.0794
      82    H39     20.899104   22.454643   17.704573 H          1 MOL1         0.0794
      83    O20     19.870402   24.138369   18.354787 O.3        1 MOL1        -0.5486
      84    H40     19.089842   24.266584   18.942227 H          1 MOL1         0.3769
      85    C25     24.832571   17.740169   22.386253 C.3        1 MOL1         0.2972
      86    H41     25.419667   16.896738   22.772153 H          1 MOL1         0.0751
      87    O21     23.489827   17.345470   22.044226 O.3        1 MOL1        -0.3740
      88    C26     24.755209   18.856764   23.452380 C.3        1 MOL1         0.1003
      89    H42     25.777917   19.210295   23.637092 H          1 MOL1         0.0783
      90    O22     24.202032   18.349643   24.677434 O.3        1 MOL1        -0.5519
      91    H43     23.691952   17.533844   24.449445 H          1 MOL1         0.3769
      92    C27     23.925219   20.050648   22.929739 C.3        1 MOL1         0.1053
      93    H44     22.883384   19.721418   22.827044 H          1 MOL1         0.0783
      94    O23     24.001362   21.120892   23.875998 O.3        1 MOL1        -0.5519
      95    H45     23.717529   20.723595   24.729007 H          1 MOL1         0.3769
      96    C28     24.412297   20.528948   21.536871 C.3        1 MOL1         0.1018
      97    H46     25.311388   21.145747   21.665719 H          1 MOL1         0.0783
      98    C29     24.702084   19.357212   20.553437 C.3        1 MOL1         0.1043
      99    H47     23.734117   18.961636   20.221531 H          1 MOL1         0.0783
     100    O24     25.445371   18.293484   21.203975 O.3        1 MOL1        -0.3740
     101    C30     25.473307   19.789265   19.283602 C.3        1 MOL1         0.0138
     102    H48     24.804079   20.396155   18.658943 H          1 MOL1         0.0794
     103    H49     25.731159   18.890577   18.707133 H          1 MOL1         0.0794
     104    O25     26.655049   20.536083   19.597383 O.3        1 MOL1        -0.5486
     105    H50     27.133175   20.705649   18.756384 H          1 MOL1         0.3769
     106    C31     21.209231   13.883086   21.499600 C.3        1 MOL1         0.2972
     107    H51     20.910400   12.838950   21.340712 H          1 MOL1         0.0751
     108    O26     20.063472   14.755551   21.519595 O.3        1 MOL1        -0.3740
     109    C32     21.922113   14.018467   22.869951 C.3        1 MOL1         0.1003
     110    H52     22.789692   13.345961   22.861325 H          1 MOL1         0.0783
     111    O27     21.034431   13.635665   23.931156 O.3        1 MOL1        -0.5519
     112    H53     20.134491   13.930472   23.657596 H          1 MOL1         0.3769
     113    C33     22.435677   15.460869   23.092970 C.3        1 MOL1         0.1053
     114    H54     21.569016   16.128294   23.181388 H          1 MOL1         0.0783
     115    O28     23.214953   15.513900   24.291945 O.3        1 MOL1        -0.5519
     116    H55     22.686986   15.022049   24.959786 H          1 MOL1         0.3769
     117    C34     23.277039   15.932561   21.886108 C.3        1 MOL1         0.1018
     118    H56     24.219771   15.369826   21.865488 H          1 MOL1         0.0783
     119    C35     22.524118   15.715242   20.547663 C.3        1 MOL1         0.1043
     120    H57     21.637071   16.361994   20.551799 H          1 MOL1         0.0783
     121    O29     22.107145   14.328287   20.456455 O.3        1 MOL1        -0.3740
     122    C36     23.347698   16.076200   19.282714 C.3        1 MOL1         0.0138
     123    H58     23.177299   17.134393   19.048163 H          1 MOL1         0.0794
     124    H59     22.960426   15.497307   18.433654 H          1 MOL1         0.0794
     125    O30     24.753106   15.842150   19.434592 O.3        1 MOL1        -0.5486
     126    H60     25.103867   16.549780   20.024110 H          1 MOL1         0.3769
     127    C1      20.937191   22.487938   25.696878 C.2        1 MOL1         0.6173
     128    O1      21.357662   22.850532   26.778420 O.co2      1 MOL1        -0.6755
     129    O2      20.506216   23.258437   24.858081 O.co2      1 MOL1        -0.6755
     130    C2      20.927268   21.026307   25.420783 C.2        1 MOL1        -0.1504
     131    H1      21.272752   20.388388   26.230700 H          1 MOL1         0.0814
     132    C3      20.507703   20.480198   24.257369 C.2        1 MOL1        -0.1394
     133    H2      20.165167   21.106929   23.435987 H          1 MOL1         0.0817
     134    C4      20.458972   18.989564   24.009120 C.3        1 MOL1        -0.1849
     135    H3      21.349945   18.507160   24.432040 H          1 MOL1         0.0736
     136    H4      20.475446   18.792461   22.928991 H          1 MOL1         0.0736
     137    C5      19.190606   18.373192   24.631580 C.3        1 MOL1        -0.1866
     138    H5      19.176152   18.565622   25.712995 H          1 MOL1         0.0738
     139    H6      18.303634   18.865317   24.212277 H          1 MOL1         0.0738
     140    C6      19.114253   16.855979   24.379722 C.3        1 MOL1        -0.2879
     141    H7      19.156720   16.644379   23.305139 H          1 MOL1         0.0750
     142    H8      19.947145   16.336228   24.869700 H          1 MOL1         0.0750
     143    H9      18.178877   16.441416   24.775422 H          1 MOL1         0.0750
@<TRIPOS>BOND
    1     1     2    1
    2     1     3    1
    3     1     4    1
    4     4     5    1
    5     4     6    1
    6     6     7    1
    7     4     8    1
    8     8     9    1
    9     8    10    1
   10    10    11    1
   11     8    12    1
   12    12    13    1
   13    12    14    1
   14    14    15    1
   15     1    16    1
   16    14    16    1
   17    14    17    1
   18    17    18    1
   19    17    19    1
   20    17    20    1
   21    20    21    1
   22    22    23    1
   23    22    24    1
   24    22    25    1
   25    25    26    1
   26    25    27    1
   27    27    28    1
   28    25    29    1
   29    29    30    1
   30    29    31    1
   31    31    32    1
   32     3    33    1
   33    29    33    1
   34    33    34    1
   35    33    35    1
   36    35    36    1
   37    22    37    1
   38    35    37    1
   39    35    38    1
   40    38    39    1
   41    38    40    1
   42    38    41    1
   43    41    42    1
   44    43    44    1
   45    43    45    1
   46    43    46    1
   47    46    47    1
   48    46    48    1
   49    48    49    1
   50    46    50    1
   51    50    51    1
   52    50    52    1
   53    52    53    1
   54    24    54    1
   55    50    54    1
   56    54    55    1
   57    54    56    1
   58    56    57    1
   59    43    58    1
   60    56    58    1
   61    56    59    1
   62    59    60    1
   63    59    61    1
   64    59    62    1
   65    62    63    1
   66    64    65    1
   67    64    66    1
   68    64    67    1
   69    67    68    1
   70    67    69    1
   71    69    70    1
   72    67    71    1
   73    71    72    1
   74    71    73    1
   75    73    74    1
   76    45    75    1
   77    71    75    1
   78    75    76    1
   79    75    77    1
   80    77    78    1
   81    64    79    1
   82    77    79    1
   83    77    80    1
   84    80    81    1
   85    80    82    1
   86    80    83    1
   87    83    84    1
   88    85    86    1
   89    85    87    1
   90    85    88    1
   91    88    89    1
   92    88    90    1
   93    90    91    1
   94    88    92    1
   95    92    93    1
   96    92    94    1
   97    94    95    1
   98    66    96    1
   99    92    96    1
  100    96    97    1
  101    96    98    1
  102    98    99    1
  103    85   100    1
  104    98   100    1
  105    98   101    1
  106   101   102    1
  107   101   103    1
  108   101   104    1
  109   104   105    1
  110   106   107    1
  111    12   108    1
  112   106   108    1
  113   106   109    1
  114   109   110    1
  115   109   111    1
  116   111   112    1
  117   109   113    1
  118   113   114    1
  119   113   115    1
  120   115   116    1
  121    87   117    1
  122   113   117    1
  123   117   118    1
  124   117   119    1
  125   119   120    1
  126   106   121    1
  127   119   121    1
  128   119   122    1
  129   122   123    1
  130   122   124    1
  131   122   125    1
  132   125   126    1
  133   127   128    1
  134   127   129    2
  135   127   130    1
  136   130   131    1
  137   130   132    2
  138   132   133    1
  139   132   134    1
  140   134   135    1
  141   134   136    1
  142   134   137    1
  143   137   138    1
  144   137   139    1
  145   137   140    1
  146   140   141    1
  147   140   142    1
  148   140   143    1
@<TRIPOS>SUBSTRUCTURE
       1 MOL1            1 RESIDUE      1      MOL     
       2 MOL1          143 RESIDUE      1      MOL     
@<SCITEGIC>MOL_PROPERTY
feprocess Rank
SciTegic.value.IntegerValue
99

@<SCITEGIC>MOL_PROPERTY
Conf_Id
SciTegic.value.IntegerValue
333

@<SCITEGIC>MOL_PROPERTY
Probability
SciTegic.value.DoubleValue
0.00

@<SCITEGIC>MOL_PROPERTY
G
SciTegic.value.DoubleValue
501.589

@<SCITEGIC>MOL_PROPERTY
E
SciTegic.value.DoubleValue
319.421

@<SCITEGIC>MOL_PROPERTY
-TS
SciTegic.value.DoubleValue
182.168

@<SCITEGIC>MOL_PROPERTY
U+W
SciTegic.value.DoubleValue
193.332

@<SCITEGIC>MOL_PROPERTY
U
SciTegic.value.DoubleValue
274.062

@<SCITEGIC>MOL_PROPERTY
W
SciTegic.value.DoubleValue
-80.729

@<SCITEGIC>MOL_PROPERTY
W(PB)
SciTegic.value.DoubleValue
-86.824

@<SCITEGIC>MOL_PROPERTY
W(SA)
SciTegic.value.DoubleValue
6.094

@<SCITEGIC>MOL_PROPERTY
Valence
SciTegic.value.DoubleValue
150.861

@<SCITEGIC>MOL_PROPERTY
Coulomb
SciTegic.value.DoubleValue
143.644

@<SCITEGIC>MOL_PROPERTY
VdW
SciTegic.value.DoubleValue
-20.443

@<SCITEGIC>MOL_PROPERTY
VdW6
SciTegic.value.DoubleValue
-176.164

@<SCITEGIC>MOL_PROPERTY
VdW12
SciTegic.value.DoubleValue
155.721

@<SCITEGIC>MOL_PROPERTY
Bond
SciTegic.value.DoubleValue
5.048

@<SCITEGIC>MOL_PROPERTY
Angle
SciTegic.value.DoubleValue
14.936

@<SCITEGIC>MOL_PROPERTY
Pdih
SciTegic.value.DoubleValue
130.874

@<SCITEGIC>MOL_PROPERTY
Idih
SciTegic.value.DoubleValue
0.003

@<SCITEGIC>MOL_PROPERTY
Tether
SciTegic.value.DoubleValue
0.000

@<TRIPOS>MOLECULE
CD_guest-s19_fast_vm2_rndm.mol2 : feprocess host+ligand conformer 100
         143         148           2
SMALL
USER_CHARGES
 
@<TRIPOS>ATOM
       1    C1      16.152994   15.210240   21.820697 C.3        1 MOL1         0.2972
       2    H1      15.066661   15.067124   21.887845 H          1 MOL1         0.0751
       3    O1      16.482426   16.606200   21.672543 O.3        1 MOL1        -0.3740
       4    C2      16.821718   14.673744   23.110966 C.3        1 MOL1         0.1003
       5    H2      16.563473   13.610521   23.199100 H          1 MOL1         0.0783
       6    O2      16.314830   15.381265   24.252637 O.3        1 MOL1        -0.5519
       7    H3      16.151652   16.304820   23.951956 H          1 MOL1         0.3769
       8    C3      18.363609   14.782583   23.039888 C.3        1 MOL1         0.1053
       9    H4      18.632525   15.844817   23.093429 H          1 MOL1         0.0783
      10    O3      18.950633   14.080106   24.141680 O.3        1 MOL1        -0.5519
      11    H5      18.686963   14.586935   24.940339 H          1 MOL1         0.3769
      12    C4      18.922581   14.206306   21.717225 C.3        1 MOL1         0.1018
      13    H6      18.927556   13.110627   21.790023 H          1 MOL1         0.0783
      14    C5      18.116919   14.659736   20.469417 C.3        1 MOL1         0.1043
      15    H7      18.339131   15.721845   20.311234 H          1 MOL1         0.0783
      16    O4      16.692611   14.495824   20.690236 O.3        1 MOL1        -0.3740
      17    C6      18.495406   13.905975   19.171363 C.3        1 MOL1         0.0138
      18    H8      19.492373   14.236966   18.851695 H          1 MOL1         0.0794
      19    H9      17.790390   14.192197   18.379475 H          1 MOL1         0.0794
      20    O5      18.488742   12.484535   19.352221 O.3        1 MOL1        -0.5486
      21    H10     18.669550   12.072157   18.479600 H          1 MOL1         0.3769
      22    C7      14.984257   20.214594   20.252376 C.3        1 MOL1         0.2972
      23    H11     14.426222   21.023167   19.762976 H          1 MOL1         0.0751
      24    O6      16.239199   20.682298   20.787635 O.3        1 MOL1        -0.3740
      25    C8      14.154604   19.560773   21.388117 C.3        1 MOL1         0.1003
      26    H12     13.267673   19.111900   20.922239 H          1 MOL1         0.0783
      27    O7      13.725840   20.524231   22.361300 O.3        1 MOL1        -0.5519
      28    H13     14.542730   20.940066   22.736989 H          1 MOL1         0.3769
      29    C9      14.964723   18.423618   22.058614 C.3        1 MOL1         0.1053
      30    H14     15.832524   18.870575   22.563829 H          1 MOL1         0.0783
      31    O8      14.138781   17.751920   23.015248 O.3        1 MOL1        -0.5519
      32    H15     13.694328   18.468244   23.520489 H          1 MOL1         0.3769
      33    C10     15.483959   17.408850   21.006784 C.3        1 MOL1         0.1018
      34    H16     14.631724   16.806341   20.666332 H          1 MOL1         0.0783
      35    C11     16.138763   18.104603   19.776096 C.3        1 MOL1         0.1043
      36    H17     17.093132   18.533230   20.098469 H          1 MOL1         0.0783
      37    O9      15.275516   19.168535   19.301539 O.3        1 MOL1        -0.3740
      38    C12     16.446339   17.175611   18.572221 C.3        1 MOL1         0.0138
      39    H18     17.467486   16.792246   18.673810 H          1 MOL1         0.0794
      40    H19     16.434798   17.780835   17.655861 H          1 MOL1         0.0794
      41    O10     15.528904   16.082535   18.445744 O.3        1 MOL1        -0.5486
      42    H20     15.750867   15.434116   19.154565 H          1 MOL1         0.3769
      43    C13     18.434596   24.090451   21.682338 C.3        1 MOL1         0.2972
      44    H21     18.778631   25.111701   21.889353 H          1 MOL1         0.0751
      45    O11     19.534250   23.163344   21.583215 O.3        1 MOL1        -0.3740
      46    C14     17.477259   23.613352   22.803558 C.3        1 MOL1         0.1003
      47    H22     16.606014   24.281294   22.793385 H          1 MOL1         0.0783
      48    O12     18.098246   23.682120   24.096333 O.3        1 MOL1        -0.5519
      49    H23     19.077679   23.663472   23.954642 H          1 MOL1         0.3769
      50    C15     16.973889   22.180035   22.520354 C.3        1 MOL1         0.1053
      51    H24     17.832577   21.496893   22.570815 H          1 MOL1         0.0783
      52    O13     16.013609   21.824651   23.519371 O.3        1 MOL1        -0.5519
      53    H25     16.424010   22.108004   24.367658 H          1 MOL1         0.3769
      54    C16     16.348016   22.083328   21.105187 C.3        1 MOL1         0.1018
      55    H26     15.367915   22.578476   21.118185 H          1 MOL1         0.0783
      56    C17     17.257518   22.726865   20.018279 C.3        1 MOL1         0.1043
      57    H27     18.133376   22.078681   19.884519 H          1 MOL1         0.0783
      58    O14     17.704430   24.043448   20.438155 O.3        1 MOL1        -0.3740
      59    C18     16.570367   22.857297   18.638304 C.3        1 MOL1         0.0138
      60    H28     16.459539   21.852139   18.209123 H          1 MOL1         0.0794
      61    H29     17.230765   23.426433   17.970459 H          1 MOL1         0.0794
      62    O15     15.287665   23.490101   18.730898 O.3        1 MOL1        -0.5486
      63    H30     14.946198   23.606279   17.817532 H          1 MOL1         0.3769
      64    C19     23.661636   22.837615   21.671846 C.3        1 MOL1         0.2972
      65    H31     24.747057   22.999247   21.650383 H          1 MOL1         0.0751
      66    O16     23.329865   21.439926   21.775534 O.3        1 MOL1        -0.3740
      67    C20     23.046364   23.558754   22.893671 C.3        1 MOL1         0.1003
      68    H32     23.242283   24.632700   22.777616 H          1 MOL1         0.0783
      69    O17     23.649787   23.096465   24.112585 O.3        1 MOL1        -0.5519
      70    H33     23.986237   22.181833   23.940062 H          1 MOL1         0.3769
      71    C21     21.514511   23.352859   22.934891 C.3        1 MOL1         0.1053
      72    H34     21.314882   22.290411   23.132361 H          1 MOL1         0.0783
      73    O18     20.968327   24.152548   23.986547 O.3        1 MOL1        -0.5519
      74    H35     21.577429   24.016480   24.747439 H          1 MOL1         0.3769
      75    C22     20.859862   23.727978   21.581027 C.3        1 MOL1         0.1018
      76    H36     20.845431   24.821172   21.485249 H          1 MOL1         0.0783
      77    C23     21.612949   23.118317   20.364815 C.3        1 MOL1         0.1043
      78    H37     21.440697   22.037791   20.367206 H          1 MOL1         0.0783
      79    O19     23.039200   23.360726   20.477714 O.3        1 MOL1        -0.3740
      80    C24     21.117412   23.641929   18.994324 C.3        1 MOL1         0.0138
      81    H38     20.141523   23.186831   18.778585 H          1 MOL1         0.0794
      82    H39     21.813515   23.298319   18.217586 H          1 MOL1         0.0794
      83    O20     21.000451   25.068742   18.954336 O.3        1 MOL1        -0.5486
      84    H40     20.148211   25.304436   19.380198 H          1 MOL1         0.3769
      85    C25     25.067091   17.661940   21.297269 C.3        1 MOL1         0.2972
      86    H41     25.779028   16.863687   21.052138 H          1 MOL1         0.0751
      87    O21     23.810532   17.118450   21.747952 O.3        1 MOL1        -0.3740
      88    C26     25.645767   18.535625   22.441040 C.3        1 MOL1         0.1003
      89    H42     26.617727   18.918513   22.103946 H          1 MOL1         0.0783
      90    O22     25.831228   17.744289   23.624270 O.3        1 MOL1        -0.5519
      91    H43     25.012911   17.200559   23.724158 H          1 MOL1         0.3769
      92    C27     24.734193   19.748303   22.745821 C.3        1 MOL1         0.1053
      93    H44     23.805383   19.370577   23.190584 H          1 MOL1         0.0783
      94    O23     25.390815   20.625867   23.666643 O.3        1 MOL1        -0.5519
      95    H45     25.701897   20.043622   24.395198 H          1 MOL1         0.3769
      96    C28     24.380270   20.513805   21.449218 C.3        1 MOL1         0.1018
      97    H46     25.281571   21.021716   21.081312 H          1 MOL1         0.0783
      98    C29     23.850709   19.557932   20.349795 C.3        1 MOL1         0.1043
      99    H47     22.907705   19.122057   20.704337 H          1 MOL1         0.0783
     100    O24     24.823241   18.501713   20.145827 O.3        1 MOL1        -0.3740
     101    C30     23.557416   20.241806   18.987722 C.3        1 MOL1         0.0138
     102    H48     22.521538   20.603136   18.996752 H          1 MOL1         0.0794
     103    H49     23.622828   19.487617   18.192841 H          1 MOL1         0.0794
     104    O25     24.440339   21.331617   18.697638 O.3        1 MOL1        -0.5486
     105    H50     24.131175   22.101776   19.228928 H          1 MOL1         0.3769
     106    C31     21.268115   13.853120   21.105905 C.3        1 MOL1         0.2972
     107    H51     20.849780   12.882296   20.810519 H          1 MOL1         0.0751
     108    O26     20.249872   14.747715   21.586491 O.3        1 MOL1        -0.3740
     109    C32     22.318884   13.679888   22.231107 C.3        1 MOL1         0.1003
     110    H52     23.096668   13.004837   21.851412 H          1 MOL1         0.0783
     111    O27     21.718749   13.100440   23.401154 O.3        1 MOL1        -0.5519
     112    H53     20.898180   13.622053   23.595281 H          1 MOL1         0.3769
     113    C33     22.990395   15.031070   22.583834 C.3        1 MOL1         0.1053
     114    H54     22.239832   15.664252   23.072190 H          1 MOL1         0.0783
     115    O28     24.083524   14.792286   23.477682 O.3        1 MOL1        -0.5519
     116    H55     23.706125   14.250327   24.204721 H          1 MOL1         0.3769
     117    C34     23.497845   15.774596   21.321384 C.3        1 MOL1         0.1018
     118    H56     24.386414   15.245810   20.952894 H          1 MOL1         0.0783
     119    C35     22.415264   15.819492   20.203253 C.3        1 MOL1         0.1043
     120    H57     21.594867   16.464905   20.544312 H          1 MOL1         0.0783
     121    O29     21.916196   14.478923   19.980509 O.3        1 MOL1        -0.3740
     122    C36     22.889093   16.360974   18.830731 C.3        1 MOL1         0.0138
     123    H58     22.784251   17.450473   18.827868 H          1 MOL1         0.0794
     124    H59     22.212694   15.979397   18.054287 H          1 MOL1         0.0794
     125    O30     24.240896   16.009219   18.517928 O.3        1 MOL1        -0.5486
     126    H60     24.806060   16.723443   18.889805 H          1 MOL1         0.3769
     127    C1      21.294337   17.977686   24.225932 C.2        1 MOL1         0.6173
     128    O1      22.232127   18.302631   24.928464 O.co2      1 MOL1        -0.6755
     129    O2      20.614514   16.989739   24.431792 O.co2      1 MOL1        -0.6755
     130    C2      20.974992   18.857581   23.068996 C.2        1 MOL1        -0.1504
     131    H1      21.574568   19.758677   22.982142 H          1 MOL1         0.0814
     132    C3      20.002906   18.598093   22.166949 C.2        1 MOL1        -0.1394
     133    H2      19.393522   17.700675   22.244402 H          1 MOL1         0.0817
     134    C4      19.662513   19.517195   21.018697 C.3        1 MOL1        -0.1849
     135    H3      20.237785   20.444306   21.097015 H          1 MOL1         0.0736
     136    H4      18.610950   19.805679   21.099196 H          1 MOL1         0.0736
     137    C5      19.918727   18.851161   19.653465 C.3        1 MOL1        -0.1866
     138    H5      20.985529   18.629288   19.551537 H          1 MOL1         0.0738
     139    H6      19.391463   17.889941   19.606298 H          1 MOL1         0.0738
     140    C6      19.466525   19.749261   18.485296 C.3        1 MOL1        -0.2879
     141    H7      18.390507   19.957870   18.543967 H          1 MOL1         0.0750
     142    H8      20.002067   20.706245   18.495915 H          1 MOL1         0.0750
     143    H9      19.664272   19.260144   17.522945 H          1 MOL1         0.0750
@<TRIPOS>BOND
    1     1     2    1
    2     1     3    1
    3     1     4    1
    4     4     5    1
    5     4     6    1
    6     6     7    1
    7     4     8    1
    8     8     9    1
    9     8    10    1
   10    10    11    1
   11     8    12    1
   12    12    13    1
   13    12    14    1
   14    14    15    1
   15     1    16    1
   16    14    16    1
   17    14    17    1
   18    17    18    1
   19    17    19    1
   20    17    20    1
   21    20    21    1
   22    22    23    1
   23    22    24    1
   24    22    25    1
   25    25    26    1
   26    25    27    1
   27    27    28    1
   28    25    29    1
   29    29    30    1
   30    29    31    1
   31    31    32    1
   32     3    33    1
   33    29    33    1
   34    33    34    1
   35    33    35    1
   36    35    36    1
   37    22    37    1
   38    35    37    1
   39    35    38    1
   40    38    39    1
   41    38    40    1
   42    38    41    1
   43    41    42    1
   44    43    44    1
   45    43    45    1
   46    43    46    1
   47    46    47    1
   48    46    48    1
   49    48    49    1
   50    46    50    1
   51    50    51    1
   52    50    52    1
   53    52    53    1
   54    24    54    1
   55    50    54    1
   56    54    55    1
   57    54    56    1
   58    56    57    1
   59    43    58    1
   60    56    58    1
   61    56    59    1
   62    59    60    1
   63    59    61    1
   64    59    62    1
   65    62    63    1
   66    64    65    1
   67    64    66    1
   68    64    67    1
   69    67    68    1
   70    67    69    1
   71    69    70    1
   72    67    71    1
   73    71    72    1
   74    71    73    1
   75    73    74    1
   76    45    75    1
   77    71    75    1
   78    75    76    1
   79    75    77    1
   80    77    78    1
   81    64    79    1
   82    77    79    1
   83    77    80    1
   84    80    81    1
   85    80    82    1
   86    80    83    1
   87    83    84    1
   88    85    86    1
   89    85    87    1
   90    85    88    1
   91    88    89    1
   92    88    90    1
   93    90    91    1
   94    88    92    1
   95    92    93    1
   96    92    94    1
   97    94    95    1
   98    66    96    1
   99    92    96    1
  100    96    97    1
  101    96    98    1
  102    98    99    1
  103    85   100    1
  104    98   100    1
  105    98   101    1
  106   101   102    1
  107   101   103    1
  108   101   104    1
  109   104   105    1
  110   106   107    1
  111    12   108    1
  112   106   108    1
  113   106   109    1
  114   109   110    1
  115   109   111    1
  116   111   112    1
  117   109   113    1
  118   113   114    1
  119   113   115    1
  120   115   116    1
  121    87   117    1
  122   113   117    1
  123   117   118    1
  124   117   119    1
  125   119   120    1
  126   106   121    1
  127   119   121    1
  128   119   122    1
  129   122   123    1
  130   122   124    1
  131   122   125    1
  132   125   126    1
  133   127   128    1
  134   127   129    2
  135   127   130    1
  136   130   131    1
  137   130   132    2
  138   132   133    1
  139   132   134    1
  140   134   135    1
  141   134   136    1
  142   134   137    1
  143   137   138    1
  144   137   139    1
  145   137   140    1
  146   140   141    1
  147   140   142    1
  148   140   143    1
@<TRIPOS>SUBSTRUCTURE
       1 MOL1            1 RESIDUE      1      MOL     
       2 MOL1          143 RESIDUE      1      MOL     
@<SCITEGIC>MOL_PROPERTY
feprocess Rank
SciTegic.value.IntegerValue
100

@<SCITEGIC>MOL_PROPERTY
Conf_Id
SciTegic.value.IntegerValue
109

@<SCITEGIC>MOL_PROPERTY
Probability
SciTegic.value.DoubleValue
0.00

@<SCITEGIC>MOL_PROPERTY
G
SciTegic.value.DoubleValue
501.649

@<SCITEGIC>MOL_PROPERTY
E
SciTegic.value.DoubleValue
321.696

@<SCITEGIC>MOL_PROPERTY
-TS
SciTegic.value.DoubleValue
179.954

@<SCITEGIC>MOL_PROPERTY
U+W
SciTegic.value.DoubleValue
195.607

@<SCITEGIC>MOL_PROPERTY
U
SciTegic.value.DoubleValue
275.239

@<SCITEGIC>MOL_PROPERTY
W
SciTegic.value.DoubleValue
-79.632

@<SCITEGIC>MOL_PROPERTY
W(PB)
SciTegic.value.DoubleValue
-85.598

@<SCITEGIC>MOL_PROPERTY
W(SA)
SciTegic.value.DoubleValue
5.966

@<SCITEGIC>MOL_PROPERTY
Valence
SciTegic.value.DoubleValue
150.093

@<SCITEGIC>MOL_PROPERTY
Coulomb
SciTegic.value.DoubleValue
153.617

@<SCITEGIC>MOL_PROPERTY
VdW
SciTegic.value.DoubleValue
-28.471

@<SCITEGIC>MOL_PROPERTY
VdW6
SciTegic.value.DoubleValue
-179.407

@<SCITEGIC>MOL_PROPERTY
VdW12
SciTegic.value.DoubleValue
150.936

@<SCITEGIC>MOL_PROPERTY
Bond
SciTegic.value.DoubleValue
4.504

@<SCITEGIC>MOL_PROPERTY
Angle
SciTegic.value.DoubleValue
13.212

@<SCITEGIC>MOL_PROPERTY
Pdih
SciTegic.value.DoubleValue
132.375

@<SCITEGIC>MOL_PROPERTY
Idih
SciTegic.value.DoubleValue
0.002

@<SCITEGIC>MOL_PROPERTY
Tether
SciTegic.value.DoubleValue
0.000

@<TRIPOS>MOLECULE
CD_guest-s19_fast_vm2_rndm.mol2 : feprocess host+ligand conformer 101
         143         148           2
SMALL
USER_CHARGES
 
@<TRIPOS>ATOM
       1    C1      16.233836   15.362784   20.490076 C.3        1 MOL1         0.2972
       2    H1      15.233139   15.277207   20.047305 H          1 MOL1         0.0751
       3    O1      16.398842   16.595328   21.211809 O.3        1 MOL1        -0.3740
       4    C2      16.494480   14.210935   21.492741 C.3        1 MOL1         0.1003
       5    H2      16.391409   13.264883   20.945693 H          1 MOL1         0.0783
       6    O2      15.540052   14.249441   22.567068 O.3        1 MOL1        -0.5519
       7    H3      15.492911   15.187631   22.881783 H          1 MOL1         0.3769
       8    C3      17.935340   14.289149   22.055821 C.3        1 MOL1         0.1053
       9    H4      18.001127   15.180008   22.693831 H          1 MOL1         0.0783
      10    O3      18.210141   13.119123   22.833882 O.3        1 MOL1        -0.5519
      11    H5      17.427574   13.008546   23.417834 H          1 MOL1         0.3769
      12    C4      18.984908   14.430309   20.924572 C.3        1 MOL1         0.1018
      13    H6      19.055746   13.469344   20.398390 H          1 MOL1         0.0783
      14    C5      18.601358   15.544505   19.909021 C.3        1 MOL1         0.1043
      15    H7      18.656569   16.513397   20.420037 H          1 MOL1         0.0783
      16    O4      17.245027   15.306610   19.463175 O.3        1 MOL1        -0.3740
      17    C6      19.500639   15.647217   18.650993 C.3        1 MOL1         0.0138
      18    H8      20.338591   16.318116   18.872655 H          1 MOL1         0.0794
      19    H9      18.923625   16.129895   17.850836 H          1 MOL1         0.0794
      20    O5      19.997299   14.379342   18.206073 O.3        1 MOL1        -0.5486
      21    H10     20.773654   14.167470   18.774573 H          1 MOL1         0.3769
      22    C7      14.646186   20.294283   21.704392 C.3        1 MOL1         0.2972
      23    H11     13.968744   21.153113   21.793978 H          1 MOL1         0.0751
      24    O6      16.025618   20.688468   21.817517 O.3        1 MOL1        -0.3740
      25    C8      14.355867   19.280118   22.835789 C.3        1 MOL1         0.1003
      26    H12     13.319617   18.936444   22.721248 H          1 MOL1         0.0783
      27    O7      14.513726   19.908936   24.117941 O.3        1 MOL1        -0.5519
      28    H13     15.198964   20.613169   24.007127 H          1 MOL1         0.3769
      29    C9      15.287634   18.053231   22.715287 C.3        1 MOL1         0.1053
      30    H14     16.313301   18.386828   22.921554 H          1 MOL1         0.0783
      31    O8      14.901352   17.055346   23.667536 O.3        1 MOL1        -0.5519
      32    H15     14.817750   17.536388   24.520327 H          1 MOL1         0.3769
      33    C10     15.250456   17.453916   21.289496 C.3        1 MOL1         0.1018
      34    H16     14.311089   16.897568   21.171543 H          1 MOL1         0.0783
      35    C11     15.382535   18.532334   20.175805 C.3        1 MOL1         0.1043
      36    H17     16.415905   18.902849   20.188809 H          1 MOL1         0.0783
      37    O9      14.471350   19.632127   20.435471 O.3        1 MOL1        -0.3740
      38    C12     15.108487   18.005085   18.747296 C.3        1 MOL1         0.0138
      39    H18     15.956905   17.380820   18.436865 H          1 MOL1         0.0794
      40    H19     15.071187   18.860855   18.060042 H          1 MOL1         0.0794
      41    O10     13.890946   17.252286   18.672855 O.3        1 MOL1        -0.5486
      42    H20     13.748800   17.009274   17.732192 H          1 MOL1         0.3769
      43    C13     18.481444   24.021456   21.327740 C.3        1 MOL1         0.2972
      44    H21     18.854145   25.036023   21.136757 H          1 MOL1         0.0751
      45    O11     19.557377   23.102169   21.588641 O.3        1 MOL1        -0.3740
      46    C14     17.564586   24.030756   22.575194 C.3        1 MOL1         0.1003
      47    H22     16.734200   24.719905   22.373637 H          1 MOL1         0.0783
      48    O12     18.294159   24.486955   23.725636 O.3        1 MOL1        -0.5519
      49    H23     19.243767   24.264371   23.564704 H          1 MOL1         0.3769
      50    C15     16.972034   22.625637   22.830277 C.3        1 MOL1         0.1053
      51    H24     17.792122   21.950492   23.112432 H          1 MOL1         0.0783
      52    O13     16.012121   22.693192   23.890723 O.3        1 MOL1        -0.5519
      53    H25     16.450036   23.218595   24.596896 H          1 MOL1         0.3769
      54    C16     16.307215   22.071441   21.548453 C.3        1 MOL1         0.1018
      55    H26     15.395643   22.650629   21.350807 H          1 MOL1         0.0783
      56    C17     17.253035   22.162500   20.317951 C.3        1 MOL1         0.1043
      57    H27     18.102045   21.488671   20.490639 H          1 MOL1         0.0783
      58    O14     17.732831   23.526779   20.196020 O.3        1 MOL1        -0.3740
      59    C18     16.616487   21.749923   18.965562 C.3        1 MOL1         0.0138
      60    H28     16.740168   20.667934   18.836566 H          1 MOL1         0.0794
      61    H29     17.180801   22.227134   18.153482 H          1 MOL1         0.0794
      62    O15     15.228643   22.089786   18.866984 O.3        1 MOL1        -0.5486
      63    H30     14.731261   21.373757   19.326021 H          1 MOL1         0.3769
      64    C19     23.624416   22.592156   20.839892 C.3        1 MOL1         0.2972
      65    H31     24.659199   22.697392   20.489243 H          1 MOL1         0.0751
      66    O16     23.406606   21.338116   21.507921 O.3        1 MOL1        -0.3740
      67    C20     23.266248   23.706426   21.855299 C.3        1 MOL1         0.1003
      68    H32     23.393890   24.671870   21.348779 H          1 MOL1         0.0783
      69    O17     24.132798   23.648835   23.000774 O.3        1 MOL1        -0.5519
      70    H33     24.171684   22.701964   23.289816 H          1 MOL1         0.3769
      71    C21     21.786516   23.582648   22.296586 C.3        1 MOL1         0.1053
      72    H34     21.678880   22.659471   22.883197 H          1 MOL1         0.0783
      73    O18     21.427771   24.711083   23.101897 O.3        1 MOL1        -0.5519
      74    H35     22.167023   24.815368   23.741445 H          1 MOL1         0.3769
      75    C22     20.843199   23.486093   21.072541 C.3        1 MOL1         0.1018
      76    H36     20.816369   24.467255   20.580607 H          1 MOL1         0.0783
      77    C23     21.316085   22.415093   20.049545 C.3        1 MOL1         0.1043
      78    H37     21.224218   21.422662   20.510760 H          1 MOL1         0.0783
      79    O19     22.704295   22.676093   19.730378 O.3        1 MOL1        -0.3740
      80    C24     20.515581   22.372300   18.722341 C.3        1 MOL1         0.0138
      81    H38     19.655568   21.705432   18.853124 H          1 MOL1         0.0794
      82    H39     21.147984   21.915224   17.949629 H          1 MOL1         0.0794
      83    O20     20.061235   23.661718   18.293282 O.3        1 MOL1        -0.5486
      84    H40     19.241561   23.855383   18.804142 H          1 MOL1         0.3769
      85    C25     25.120498   17.633503   22.082112 C.3        1 MOL1         0.2972
      86    H41     25.790392   16.773669   22.210824 H          1 MOL1         0.0751
      87    O21     23.738617   17.235405   22.080900 O.3        1 MOL1        -0.3740
      88    C26     25.317196   18.629891   23.248979 C.3        1 MOL1         0.1003
      89    H42     26.359542   18.973314   23.223911 H          1 MOL1         0.0783
      90    O22     25.056425   17.981212   24.504003 O.3        1 MOL1        -0.5519
      91    H43     24.398221   17.266522   24.321072 H          1 MOL1         0.3769
      92    C27     24.399153   19.861498   23.075238 C.3        1 MOL1         0.1053
      93    H44     23.358054   19.532055   23.197514 H          1 MOL1         0.0783
      94    O23     24.715687   20.842028   24.070268 O.3        1 MOL1        -0.5519
      95    H45     24.757088   20.341432   24.915308 H          1 MOL1         0.3769
      96    C28     24.547834   20.482047   21.665742 C.3        1 MOL1         0.1018
      97    H46     25.492616   21.040383   21.627833 H          1 MOL1         0.0783
      98    C29     24.500583   19.420602   20.530973 C.3        1 MOL1         0.1043
      99    H47     23.467996   19.052630   20.464332 H          1 MOL1         0.0783
     100    O24     25.391202   18.317043   20.841515 O.3        1 MOL1        -0.3740
     101    C30     24.879501   19.970366   19.135263 C.3        1 MOL1         0.0138
     102    H48     24.057443   20.602932   18.774729 H          1 MOL1         0.0794
     103    H49     24.965315   19.126121   18.438149 H          1 MOL1         0.0794
     104    O25     26.100624   20.720618   19.162815 O.3        1 MOL1        -0.5486
     105    H50     26.310623   20.980505   18.239512 H          1 MOL1         0.3769
     106    C31     21.331930   13.905484   21.330427 C.3        1 MOL1         0.2972
     107    H51     20.992447   12.893083   21.076558 H          1 MOL1         0.0751
     108    O26     20.219573   14.785373   21.574577 O.3        1 MOL1        -0.3740
     109    C32     22.185521   13.856519   22.621987 C.3        1 MOL1         0.1003
     110    H52     23.026930   13.175807   22.438497 H          1 MOL1         0.0783
     111    O27     21.399528   13.358358   23.715917 O.3        1 MOL1        -0.5519
     112    H53     20.466947   13.626763   23.533725 H          1 MOL1         0.3769
     113    C33     22.762672   15.250454   22.961604 C.3        1 MOL1         0.1053
     114    H54     21.930637   15.911485   23.237549 H          1 MOL1         0.0783
     115    O28     23.676890   15.138741   24.058112 O.3        1 MOL1        -0.5519
     116    H55     23.207543   14.590990   24.725843 H          1 MOL1         0.3769
     117    C34     23.476330   15.865720   21.735875 C.3        1 MOL1         0.1018
     118    H56     24.398331   15.300991   21.544789 H          1 MOL1         0.0783
     119    C35     22.575725   15.828231   20.470044 C.3        1 MOL1         0.1043
     120    H57     21.710281   16.480607   20.648014 H          1 MOL1         0.0783
     121    O29     22.125756   14.464458   20.261537 O.3        1 MOL1        -0.3740
     122    C36     23.251230   16.316758   19.162381 C.3        1 MOL1         0.0138
     123    H58     23.098233   17.399118   19.073296 H          1 MOL1         0.0794
     124    H59     22.733058   15.859258   18.309336 H          1 MOL1         0.0794
     125    O30     24.650766   16.017665   19.102475 O.3        1 MOL1        -0.5486
     126    H60     25.108550   16.700091   19.646812 H          1 MOL1         0.3769
     127    C1      19.791770   19.029563   19.801110 C.2        1 MOL1         0.6173
     128    O1      18.860652   19.232838   19.045628 O.co2      1 MOL1        -0.6755
     129    O2      20.936695   18.844745   19.429435 O.co2      1 MOL1        -0.6755
     130    C2      19.481857   18.998196   21.254253 C.2        1 MOL1        -0.1504
     131    H1      18.441008   19.162042   21.521235 H          1 MOL1         0.0814
     132    C3      20.400911   18.763745   22.216448 C.2        1 MOL1        -0.1394
     133    H2      21.445480   18.595145   21.961814 H          1 MOL1         0.0817
     134    C4      20.062322   18.704006   23.688539 C.3        1 MOL1        -0.1849
     135    H3      19.500996   19.603452   23.975212 H          1 MOL1         0.0736
     136    H4      20.986259   18.705585   24.282043 H          1 MOL1         0.0736
     137    C5      19.234646   17.444872   24.021755 C.3        1 MOL1        -0.1866
     138    H5      18.327627   17.424953   23.404786 H          1 MOL1         0.0738
     139    H6      19.808798   16.545893   23.764836 H          1 MOL1         0.0738
     140    C6      18.838236   17.393997   25.509660 C.3        1 MOL1        -0.2879
     141    H7      19.728062   17.379572   26.152219 H          1 MOL1         0.0750
     142    H8      18.229845   18.266047   25.782580 H          1 MOL1         0.0750
     143    H9      18.250785   16.491138   25.720804 H          1 MOL1         0.0750
@<TRIPOS>BOND
    1     1     2    1
    2     1     3    1
    3     1     4    1
    4     4     5    1
    5     4     6    1
    6     6     7    1
    7     4     8    1
    8     8     9    1
    9     8    10    1
   10    10    11    1
   11     8    12    1
   12    12    13    1
   13    12    14    1
   14    14    15    1
   15     1    16    1
   16    14    16    1
   17    14    17    1
   18    17    18    1
   19    17    19    1
   20    17    20    1
   21    20    21    1
   22    22    23    1
   23    22    24    1
   24    22    25    1
   25    25    26    1
   26    25    27    1
   27    27    28    1
   28    25    29    1
   29    29    30    1
   30    29    31    1
   31    31    32    1
   32     3    33    1
   33    29    33    1
   34    33    34    1
   35    33    35    1
   36    35    36    1
   37    22    37    1
   38    35    37    1
   39    35    38    1
   40    38    39    1
   41    38    40    1
   42    38    41    1
   43    41    42    1
   44    43    44    1
   45    43    45    1
   46    43    46    1
   47    46    47    1
   48    46    48    1
   49    48    49    1
   50    46    50    1
   51    50    51    1
   52    50    52    1
   53    52    53    1
   54    24    54    1
   55    50    54    1
   56    54    55    1
   57    54    56    1
   58    56    57    1
   59    43    58    1
   60    56    58    1
   61    56    59    1
   62    59    60    1
   63    59    61    1
   64    59    62    1
   65    62    63    1
   66    64    65    1
   67    64    66    1
   68    64    67    1
   69    67    68    1
   70    67    69    1
   71    69    70    1
   72    67    71    1
   73    71    72    1
   74    71    73    1
   75    73    74    1
   76    45    75    1
   77    71    75    1
   78    75    76    1
   79    75    77    1
   80    77    78    1
   81    64    79    1
   82    77    79    1
   83    77    80    1
   84    80    81    1
   85    80    82    1
   86    80    83    1
   87    83    84    1
   88    85    86    1
   89    85    87    1
   90    85    88    1
   91    88    89    1
   92    88    90    1
   93    90    91    1
   94    88    92    1
   95    92    93    1
   96    92    94    1
   97    94    95    1
   98    66    96    1
   99    92    96    1
  100    96    97    1
  101    96    98    1
  102    98    99    1
  103    85   100    1
  104    98   100    1
  105    98   101    1
  106   101   102    1
  107   101   103    1
  108   101   104    1
  109   104   105    1
  110   106   107    1
  111    12   108    1
  112   106   108    1
  113   106   109    1
  114   109   110    1
  115   109   111    1
  116   111   112    1
  117   109   113    1
  118   113   114    1
  119   113   115    1
  120   115   116    1
  121    87   117    1
  122   113   117    1
  123   117   118    1
  124   117   119    1
  125   119   120    1
  126   106   121    1
  127   119   121    1
  128   119   122    1
  129   122   123    1
  130   122   124    1
  131   122   125    1
  132   125   126    1
  133   127   128    1
  134   127   129    2
  135   127   130    1
  136   130   131    1
  137   130   132    2
  138   132   133    1
  139   132   134    1
  140   134   135    1
  141   134   136    1
  142   134   137    1
  143   137   138    1
  144   137   139    1
  145   137   140    1
  146   140   141    1
  147   140   142    1
  148   140   143    1
@<TRIPOS>SUBSTRUCTURE
       1 MOL1            1 RESIDUE      1      MOL     
       2 MOL1          143 RESIDUE      1      MOL     
@<SCITEGIC>MOL_PROPERTY
feprocess Rank
SciTegic.value.IntegerValue
101

@<SCITEGIC>MOL_PROPERTY
Conf_Id
SciTegic.value.IntegerValue
957

@<SCITEGIC>MOL_PROPERTY
Probability
SciTegic.value.DoubleValue
0.00

@<SCITEGIC>MOL_PROPERTY
G
SciTegic.value.DoubleValue
501.656

@<SCITEGIC>MOL_PROPERTY
E
SciTegic.value.DoubleValue
321.468

@<SCITEGIC>MOL_PROPERTY
-TS
SciTegic.value.DoubleValue
180.188

@<SCITEGIC>MOL_PROPERTY
U+W
SciTegic.value.DoubleValue
195.379

@<SCITEGIC>MOL_PROPERTY
U
SciTegic.value.DoubleValue
262.388

@<SCITEGIC>MOL_PROPERTY
W
SciTegic.value.DoubleValue
-67.009

@<SCITEGIC>MOL_PROPERTY
W(PB)
SciTegic.value.DoubleValue
-72.932

@<SCITEGIC>MOL_PROPERTY
W(SA)
SciTegic.value.DoubleValue
5.923

@<SCITEGIC>MOL_PROPERTY
Valence
SciTegic.value.DoubleValue
149.924

@<SCITEGIC>MOL_PROPERTY
Coulomb
SciTegic.value.DoubleValue
141.757

@<SCITEGIC>MOL_PROPERTY
VdW
SciTegic.value.DoubleValue
-29.293

@<SCITEGIC>MOL_PROPERTY
VdW6
SciTegic.value.DoubleValue
-180.977

@<SCITEGIC>MOL_PROPERTY
VdW12
SciTegic.value.DoubleValue
151.685

@<SCITEGIC>MOL_PROPERTY
Bond
SciTegic.value.DoubleValue
4.221

@<SCITEGIC>MOL_PROPERTY
Angle
SciTegic.value.DoubleValue
12.601

@<SCITEGIC>MOL_PROPERTY
Pdih
SciTegic.value.DoubleValue
133.101

@<SCITEGIC>MOL_PROPERTY
Idih
SciTegic.value.DoubleValue
0.001

@<SCITEGIC>MOL_PROPERTY
Tether
SciTegic.value.DoubleValue
0.000

@<TRIPOS>MOLECULE
CD_guest-s19_fast_vm2_rndm.mol2 : feprocess host+ligand conformer 102
         143         148           2
SMALL
USER_CHARGES
 
@<TRIPOS>ATOM
       1    C1      16.454962   15.590732   22.122490 C.3        1 MOL1         0.2972
       2    H1      15.404791   15.542373   22.437949 H          1 MOL1         0.0751
       3    O1      16.775820   16.900197   21.610619 O.3        1 MOL1        -0.3740
       4    C2      17.373360   15.293520   23.334441 C.3        1 MOL1         0.1003
       5    H2      17.106898   14.298539   23.713330 H          1 MOL1         0.0783
       6    O2      17.138518   16.267681   24.361315 O.3        1 MOL1        -0.5519
       7    H3      17.185355   17.141179   23.917710 H          1 MOL1         0.3769
       8    C3      18.870212   15.261515   22.931072 C.3        1 MOL1         0.1053
       9    H4      19.179663   16.279260   22.668606 H          1 MOL1         0.0783
      10    O3      19.653053   14.770041   24.027863 O.3        1 MOL1        -0.5519
      11    H5      20.019556   15.543562   24.533067 H          1 MOL1         0.3769
      12    C4      19.114403   14.364011   21.689613 C.3        1 MOL1         0.1018
      13    H6      19.100723   13.311087   22.001160 H          1 MOL1         0.0783
      14    C5      18.070673   14.599347   20.564577 C.3        1 MOL1         0.1043
      15    H7      18.292360   15.575548   20.122288 H          1 MOL1         0.0783
      16    O4      16.719073   14.616767   21.089641 O.3        1 MOL1        -0.3740
      17    C6      18.146246   13.550857   19.428386 C.3        1 MOL1         0.0138
      18    H8      19.080718   13.707442   18.872580 H          1 MOL1         0.0794
      19    H9      17.318403   13.726662   18.728660 H          1 MOL1         0.0794
      20    O5      18.098304   12.208991   19.928695 O.3        1 MOL1        -0.5486
      21    H10     18.078119   11.603107   19.156091 H          1 MOL1         0.3769
      22    C7      15.001759   20.314677   20.072190 C.3        1 MOL1         0.2972
      23    H11     14.412378   21.073490   19.542964 H          1 MOL1         0.0751
      24    O6      16.190511   20.878735   20.665433 O.3        1 MOL1        -0.3740
      25    C8      14.159230   19.600150   21.159488 C.3        1 MOL1         0.1003
      26    H12     13.350169   19.070853   20.639256 H          1 MOL1         0.0783
      27    O7      13.576073   20.531383   22.082204 O.3        1 MOL1        -0.5519
      28    H13     14.322327   20.991502   22.542693 H          1 MOL1         0.3769
      29    C9      15.013478   18.540590   21.900604 C.3        1 MOL1         0.1053
      30    H14     15.789402   19.065709   22.474010 H          1 MOL1         0.0783
      31    O8      14.166619   17.803362   22.787347 O.3        1 MOL1        -0.5519
      32    H15     13.637766   18.480063   23.264465 H          1 MOL1         0.3769
      33    C10     15.713098   17.574890   20.902837 C.3        1 MOL1         0.1018
      34    H16     14.963397   16.865340   20.529861 H          1 MOL1         0.0783
      35    C11     16.357537   18.317447   19.693570 C.3        1 MOL1         0.1043
      36    H17     17.248936   18.846489   20.052040 H          1 MOL1         0.0783
      37    O9      15.424473   19.286174   19.152742 O.3        1 MOL1        -0.3740
      38    C12     16.822969   17.393441   18.538131 C.3        1 MOL1         0.0138
      39    H18     17.862086   17.097769   18.725611 H          1 MOL1         0.0794
      40    H19     16.830226   17.975468   17.606909 H          1 MOL1         0.0794
      41    O10     16.004386   16.226945   18.379521 O.3        1 MOL1        -0.5486
      42    H20     16.090543   15.691275   19.200646 H          1 MOL1         0.3769
      43    C13     18.298181   24.157652   21.871744 C.3        1 MOL1         0.2972
      44    H21     18.707006   25.132064   22.168414 H          1 MOL1         0.0751
      45    O11     19.325929   23.154896   21.752944 O.3        1 MOL1        -0.3740
      46    C14     17.267169   23.674605   22.916647 C.3        1 MOL1         0.1003
      47    H22     16.433815   24.389221   22.916370 H          1 MOL1         0.0783
      48    O12     17.848930   23.627021   24.229092 O.3        1 MOL1        -0.5519
      49    H23     18.827163   23.532358   24.110862 H          1 MOL1         0.3769
      50    C15     16.710537   22.289214   22.521649 C.3        1 MOL1         0.1053
      51    H24     17.530713   21.566114   22.593955 H          1 MOL1         0.0783
      52    O13     15.674810   21.928792   23.439033 O.3        1 MOL1        -0.5519
      53    H25     16.044900   22.141034   24.325711 H          1 MOL1         0.3769
      54    C16     16.183462   22.263754   21.062147 C.3        1 MOL1         0.1018
      55    H26     15.176706   22.699533   21.038330 H          1 MOL1         0.0783
      56    C17     17.124062   22.998746   20.059190 C.3        1 MOL1         0.1043
      57    H27     17.980002   22.338030   19.869313 H          1 MOL1         0.0783
      58    O14     17.617680   24.250881   20.604032 O.3        1 MOL1        -0.3740
      59    C18     16.466111   23.287193   18.688281 C.3        1 MOL1         0.0138
      60    H28     16.248167   22.331609   18.192295 H          1 MOL1         0.0794
      61    H29     17.194542   23.817288   18.060328 H          1 MOL1         0.0794
      62    O15     15.267997   24.065938   18.805836 O.3        1 MOL1        -0.5486
      63    H30     14.580521   23.513801   19.231968 H          1 MOL1         0.3769
      64    C19     23.471021   22.713479   21.741559 C.3        1 MOL1         0.2972
      65    H31     24.552472   22.896535   21.695951 H          1 MOL1         0.0751
      66    O16     23.176540   21.306471   21.823919 O.3        1 MOL1        -0.3740
      67    C20     22.876261   23.392399   23.000369 C.3        1 MOL1         0.1003
      68    H32     23.076866   24.468789   22.921410 H          1 MOL1         0.0783
      69    O17     23.499023   22.881007   24.189545 O.3        1 MOL1        -0.5519
      70    H33     23.906842   22.014547   23.946164 H          1 MOL1         0.3769
      71    C21     21.343080   23.194211   23.061920 C.3        1 MOL1         0.1053
      72    H34     21.138341   22.125707   23.216860 H          1 MOL1         0.0783
      73    O18     20.810082   23.953156   24.151261 O.3        1 MOL1        -0.5519
      74    H35     21.416412   23.771291   24.904177 H          1 MOL1         0.3769
      75    C22     20.682214   23.631575   21.732143 C.3        1 MOL1         0.1018
      76    H36     20.736727   24.725176   21.651748 H          1 MOL1         0.0783
      77    C23     21.379542   22.994194   20.499956 C.3        1 MOL1         0.1043
      78    H37     21.201928   21.914943   20.535192 H          1 MOL1         0.0783
      79    O19     22.807783   23.242296   20.569106 O.3        1 MOL1        -0.3740
      80    C24     20.840342   23.483145   19.130388 C.3        1 MOL1         0.0138
      81    H38     20.000524   22.838759   18.840126 H          1 MOL1         0.0794
      82    H39     21.624002   23.344071   18.373640 H          1 MOL1         0.0794
      83    O20     20.406467   24.848287   19.147156 O.3        1 MOL1        -0.5486
      84    H40     19.530934   24.866246   19.597633 H          1 MOL1         0.3769
      85    C25     25.005225   17.576923   21.168585 C.3        1 MOL1         0.2972
      86    H41     25.738077   16.835577   20.825478 H          1 MOL1         0.0751
      87    O21     23.836359   16.924167   21.709777 O.3        1 MOL1        -0.3740
      88    C26     25.651042   18.475851   22.264934 C.3        1 MOL1         0.1003
      89    H42     26.599451   18.843618   21.852804 H          1 MOL1         0.0783
      90    O22     25.915570   17.723087   23.458778 O.3        1 MOL1        -0.5519
      91    H43     25.028136   17.483703   23.841120 H          1 MOL1         0.3769
      92    C27     24.783984   19.707503   22.626990 C.3        1 MOL1         0.1053
      93    H44     23.944134   19.347178   23.224816 H          1 MOL1         0.0783
      94    O23     25.551941   20.631340   23.405421 O.3        1 MOL1        -0.5519
      95    H45     25.978379   20.087580   24.104464 H          1 MOL1         0.3769
      96    C28     24.215225   20.417465   21.376294 C.3        1 MOL1         0.1018
      97    H46     25.027535   20.952888   20.867031 H          1 MOL1         0.0783
      98    C29     23.585245   19.403244   20.392793 C.3        1 MOL1         0.1043
      99    H47     22.739103   18.913788   20.890070 H          1 MOL1         0.0783
     100    O24     24.594556   18.422212   20.071427 O.3        1 MOL1        -0.3740
     101    C30     23.050603   20.020429   19.074699 C.3        1 MOL1         0.0138
     102    H48     22.010179   20.329155   19.233882 H          1 MOL1         0.0794
     103    H49     23.033318   19.238315   18.304339 H          1 MOL1         0.0794
     104    O25     23.819524   21.141258   18.621152 O.3        1 MOL1        -0.5486
     105    H50     23.622772   21.892915   19.227199 H          1 MOL1         0.3769
     106    C31     21.357421   13.705772   20.887504 C.3        1 MOL1         0.2972
     107    H51     20.868812   12.765215   20.602526 H          1 MOL1         0.0751
     108    O26     20.389631   14.750880   21.132031 O.3        1 MOL1        -0.3740
     109    C32     22.278290   13.511417   22.117756 C.3        1 MOL1         0.1003
     110    H52     23.107618   12.864621   21.803741 H          1 MOL1         0.0783
     111    O27     21.583355   12.862899   23.192689 O.3        1 MOL1        -0.5519
     112    H53     20.972962   13.535577   23.582730 H          1 MOL1         0.3769
     113    C33     22.878467   14.882076   22.525121 C.3        1 MOL1         0.1053
     114    H54     22.049819   15.541875   22.811114 H          1 MOL1         0.0783
     115    O28     23.776511   14.737208   23.631336 O.3        1 MOL1        -0.5519
     116    H55     23.706997   15.588791   24.136795 H          1 MOL1         0.3769
     117    C34     23.631319   15.538975   21.333775 C.3        1 MOL1         0.1018
     118    H56     24.590693   15.016114   21.230182 H          1 MOL1         0.0783
     119    C35     22.836671   15.455101   19.985289 C.3        1 MOL1         0.1043
     120    H57     22.050815   16.220765   20.002142 H          1 MOL1         0.0783
     121    O29     22.219209   14.150791   19.824637 O.3        1 MOL1        -0.3740
     122    C36     23.685418   15.676777   18.707122 C.3        1 MOL1         0.0138
     123    H58     23.855816   16.747953   18.561772 H          1 MOL1         0.0794
     124    H59     23.099047   15.338634   17.842154 H          1 MOL1         0.0794
     125    O30     24.936452   14.978257   18.752192 O.3        1 MOL1        -0.5486
     126    H60     25.390098   15.126460   17.894059 H          1 MOL1         0.3769
     127    C1      22.093908   17.370409   24.777607 C.2        1 MOL1         0.6173
     128    O1      21.467402   16.509079   25.366334 O.co2      1 MOL1        -0.6755
     129    O2      23.311027   17.371725   24.698837 O.co2      1 MOL1        -0.6755
     130    C2      21.339871   18.386952   23.995008 C.2        1 MOL1        -0.1504
     131    H1      21.930847   19.090759   23.424664 H          1 MOL1         0.0814
     132    C3      19.990797   18.439313   23.931585 C.2        1 MOL1        -0.1394
     133    H2      19.387541   17.742196   24.509141 H          1 MOL1         0.0817
     134    C4      19.207385   19.413052   23.073895 C.3        1 MOL1        -0.1849
     135    H3      19.154953   20.378306   23.593507 H          1 MOL1         0.0736
     136    H4      18.173722   19.059165   22.974238 H          1 MOL1         0.0736
     137    C5      19.797840   19.633732   21.659853 C.3        1 MOL1        -0.1866
     138    H5      19.136071   20.307377   21.099466 H          1 MOL1         0.0738
     139    H6      20.760013   20.147565   21.751188 H          1 MOL1         0.0738
     140    C6      19.996601   18.329046   20.857928 C.3        1 MOL1        -0.2879
     141    H7      19.067303   17.757724   20.797903 H          1 MOL1         0.0750
     142    H8      20.329795   18.545269   19.835891 H          1 MOL1         0.0750
     143    H9      20.749248   17.686187   21.330955 H          1 MOL1         0.0750
@<TRIPOS>BOND
    1     1     2    1
    2     1     3    1
    3     1     4    1
    4     4     5    1
    5     4     6    1
    6     6     7    1
    7     4     8    1
    8     8     9    1
    9     8    10    1
   10    10    11    1
   11     8    12    1
   12    12    13    1
   13    12    14    1
   14    14    15    1
   15     1    16    1
   16    14    16    1
   17    14    17    1
   18    17    18    1
   19    17    19    1
   20    17    20    1
   21    20    21    1
   22    22    23    1
   23    22    24    1
   24    22    25    1
   25    25    26    1
   26    25    27    1
   27    27    28    1
   28    25    29    1
   29    29    30    1
   30    29    31    1
   31    31    32    1
   32     3    33    1
   33    29    33    1
   34    33    34    1
   35    33    35    1
   36    35    36    1
   37    22    37    1
   38    35    37    1
   39    35    38    1
   40    38    39    1
   41    38    40    1
   42    38    41    1
   43    41    42    1
   44    43    44    1
   45    43    45    1
   46    43    46    1
   47    46    47    1
   48    46    48    1
   49    48    49    1
   50    46    50    1
   51    50    51    1
   52    50    52    1
   53    52    53    1
   54    24    54    1
   55    50    54    1
   56    54    55    1
   57    54    56    1
   58    56    57    1
   59    43    58    1
   60    56    58    1
   61    56    59    1
   62    59    60    1
   63    59    61    1
   64    59    62    1
   65    62    63    1
   66    64    65    1
   67    64    66    1
   68    64    67    1
   69    67    68    1
   70    67    69    1
   71    69    70    1
   72    67    71    1
   73    71    72    1
   74    71    73    1
   75    73    74    1
   76    45    75    1
   77    71    75    1
   78    75    76    1
   79    75    77    1
   80    77    78    1
   81    64    79    1
   82    77    79    1
   83    77    80    1
   84    80    81    1
   85    80    82    1
   86    80    83    1
   87    83    84    1
   88    85    86    1
   89    85    87    1
   90    85    88    1
   91    88    89    1
   92    88    90    1
   93    90    91    1
   94    88    92    1
   95    92    93    1
   96    92    94    1
   97    94    95    1
   98    66    96    1
   99    92    96    1
  100    96    97    1
  101    96    98    1
  102    98    99    1
  103    85   100    1
  104    98   100    1
  105    98   101    1
  106   101   102    1
  107   101   103    1
  108   101   104    1
  109   104   105    1
  110   106   107    1
  111    12   108    1
  112   106   108    1
  113   106   109    1
  114   109   110    1
  115   109   111    1
  116   111   112    1
  117   109   113    1
  118   113   114    1
  119   113   115    1
  120   115   116    1
  121    87   117    1
  122   113   117    1
  123   117   118    1
  124   117   119    1
  125   119   120    1
  126   106   121    1
  127   119   121    1
  128   119   122    1
  129   122   123    1
  130   122   124    1
  131   122   125    1
  132   125   126    1
  133   127   128    1
  134   127   129    2
  135   127   130    1
  136   130   131    1
  137   130   132    2
  138   132   133    1
  139   132   134    1
  140   134   135    1
  141   134   136    1
  142   134   137    1
  143   137   138    1
  144   137   139    1
  145   137   140    1
  146   140   141    1
  147   140   142    1
  148   140   143    1
@<TRIPOS>SUBSTRUCTURE
       1 MOL1            1 RESIDUE      1      MOL     
       2 MOL1          143 RESIDUE      1      MOL     
@<SCITEGIC>MOL_PROPERTY
feprocess Rank
SciTegic.value.IntegerValue
102

@<SCITEGIC>MOL_PROPERTY
Conf_Id
SciTegic.value.IntegerValue
867

@<SCITEGIC>MOL_PROPERTY
Probability
SciTegic.value.DoubleValue
0.00

@<SCITEGIC>MOL_PROPERTY
G
SciTegic.value.DoubleValue
501.715

@<SCITEGIC>MOL_PROPERTY
E
SciTegic.value.DoubleValue
316.902

@<SCITEGIC>MOL_PROPERTY
-TS
SciTegic.value.DoubleValue
184.814

@<SCITEGIC>MOL_PROPERTY
U+W
SciTegic.value.DoubleValue
190.813

@<SCITEGIC>MOL_PROPERTY
U
SciTegic.value.DoubleValue
269.192

@<SCITEGIC>MOL_PROPERTY
W
SciTegic.value.DoubleValue
-78.379

@<SCITEGIC>MOL_PROPERTY
W(PB)
SciTegic.value.DoubleValue
-84.361

@<SCITEGIC>MOL_PROPERTY
W(SA)
SciTegic.value.DoubleValue
5.981

@<SCITEGIC>MOL_PROPERTY
Valence
SciTegic.value.DoubleValue
151.140

@<SCITEGIC>MOL_PROPERTY
Coulomb
SciTegic.value.DoubleValue
143.735

@<SCITEGIC>MOL_PROPERTY
VdW
SciTegic.value.DoubleValue
-25.682

@<SCITEGIC>MOL_PROPERTY
VdW6
SciTegic.value.DoubleValue
-188.611

@<SCITEGIC>MOL_PROPERTY
VdW12
SciTegic.value.DoubleValue
162.929

@<SCITEGIC>MOL_PROPERTY
Bond
SciTegic.value.DoubleValue
5.309

@<SCITEGIC>MOL_PROPERTY
Angle
SciTegic.value.DoubleValue
15.702

@<SCITEGIC>MOL_PROPERTY
Pdih
SciTegic.value.DoubleValue
130.094

@<SCITEGIC>MOL_PROPERTY
Idih
SciTegic.value.DoubleValue
0.035

@<SCITEGIC>MOL_PROPERTY
Tether
SciTegic.value.DoubleValue
0.000

@<TRIPOS>MOLECULE
CD_guest-s19_fast_vm2_rndm.mol2 : feprocess host+ligand conformer 103
         143         148           2
SMALL
USER_CHARGES
 
@<TRIPOS>ATOM
       1    C1      16.238093   15.152485   21.798447 C.3        1 MOL1         0.2972
       2    H1      15.169264   15.022930   22.012959 H          1 MOL1         0.0751
       3    O1      16.585004   16.542102   21.641391 O.3        1 MOL1        -0.3740
       4    C2      17.079866   14.567740   22.955634 C.3        1 MOL1         0.1003
       5    H2      16.865894   13.492435   23.010789 H          1 MOL1         0.0783
       6    O2      16.724974   15.187019   24.202572 O.3        1 MOL1        -0.5519
       7    H3      16.235716   16.017268   23.982275 H          1 MOL1         0.3769
       8    C3      18.588780   14.742333   22.673366 C.3        1 MOL1         0.1053
       9    H4      18.816035   15.813803   22.705948 H          1 MOL1         0.0783
      10    O3      19.336492   14.063694   23.686666 O.3        1 MOL1        -0.5519
      11    H5      18.926956   14.352930   24.532589 H          1 MOL1         0.3769
      12    C4      18.983404   14.217838   21.269232 C.3        1 MOL1         0.1018
      13    H6      19.075992   13.124435   21.310802 H          1 MOL1         0.0783
      14    C5      17.980063   14.637526   20.155189 C.3        1 MOL1         0.1043
      15    H7      18.151669   15.700426   19.945410 H          1 MOL1         0.0783
      16    O4      16.605128   14.462290   20.586295 O.3        1 MOL1        -0.3740
      17    C6      18.179150   13.875108   18.823678 C.3        1 MOL1         0.0138
      18    H8      19.118399   14.213342   18.365447 H          1 MOL1         0.0794
      19    H9      17.365502   14.147625   18.137997 H          1 MOL1         0.0794
      20    O5      18.215671   12.455603   19.015307 O.3        1 MOL1        -0.5486
      21    H10     18.262814   12.036088   18.128473 H          1 MOL1         0.3769
      22    C7      14.714177   20.251771   21.199449 C.3        1 MOL1         0.2972
      23    H11     13.982836   21.040802   20.982313 H          1 MOL1         0.0751
      24    O6      15.989784   20.802953   21.577954 O.3        1 MOL1        -0.3740
      25    C8      14.211227   19.384956   22.381865 C.3        1 MOL1         0.1003
      26    H12     13.242536   18.957308   22.092368 H          1 MOL1         0.0783
      27    O7      14.041869   20.195607   23.555317 O.3        1 MOL1        -0.5519
      28    H13     14.719577   20.912931   23.503626 H          1 MOL1         0.3769
      29    C9      15.185287   18.217020   22.667167 C.3        1 MOL1         0.1053
      30    H14     16.124429   18.643226   23.041925 H          1 MOL1         0.0783
      31    O8      14.621042   17.347827   23.654199 O.3        1 MOL1        -0.5519
      32    H15     14.277427   17.947506   24.353777 H          1 MOL1         0.3769
      33    C10     15.486306   17.428768   21.369269 C.3        1 MOL1         0.1018
      34    H16     14.582384   16.882666   21.068314 H          1 MOL1         0.0783
      35    C11     15.916011   18.367121   20.210827 C.3        1 MOL1         0.1043
      36    H17     16.874755   18.827274   20.482772 H          1 MOL1         0.0783
      37    O9      14.913333   19.402354   20.046570 O.3        1 MOL1        -0.3740
      38    C12     16.127081   17.651688   18.850287 C.3        1 MOL1         0.0138
      39    H18     17.173058   17.326120   18.789117 H          1 MOL1         0.0794
      40    H19     15.974791   18.380067   18.042636 H          1 MOL1         0.0794
      41    O10     15.263964   16.523064   18.662775 O.3        1 MOL1        -0.5486
      42    H20     15.572318   15.814236   19.273987 H          1 MOL1         0.3769
      43    C13     18.406001   24.174744   21.131297 C.3        1 MOL1         0.2972
      44    H21     18.781365   25.173926   20.877032 H          1 MOL1         0.0751
      45    O11     19.450097   23.367387   21.721675 O.3        1 MOL1        -0.3740
      46    C14     17.220283   24.312955   22.124720 C.3        1 MOL1         0.1003
      47    H22     16.458130   24.924052   21.624140 H          1 MOL1         0.0783
      48    O12     17.619836   24.975883   23.333373 O.3        1 MOL1        -0.5519
      49    H23     18.252175   24.371111   23.806411 H          1 MOL1         0.3769
      50    C15     16.583460   22.941410   22.445484 C.3        1 MOL1         0.1053
      51    H24     17.309374   22.356541   23.016912 H          1 MOL1         0.0783
      52    O13     15.394547   23.126815   23.221507 O.3        1 MOL1        -0.5519
      53    H25     15.647965   23.751792   23.936458 H          1 MOL1         0.3769
      54    C16     16.251396   22.155261   21.157261 C.3        1 MOL1         0.1018
      55    H26     15.377211   22.621388   20.684154 H          1 MOL1         0.0783
      56    C17     17.442126   22.143980   20.158439 C.3        1 MOL1         0.1043
      57    H27     18.251934   21.549166   20.601740 H          1 MOL1         0.0783
      58    O14     17.906941   23.503402   19.952385 O.3        1 MOL1        -0.3740
      59    C18     17.122798   21.521442   18.772666 C.3        1 MOL1         0.0138
      60    H28     17.334151   20.446081   18.817099 H          1 MOL1         0.0794
      61    H29     17.806881   21.948021   18.027819 H          1 MOL1         0.0794
      62    O15     15.769483   21.725863   18.353304 O.3        1 MOL1        -0.5486
      63    H30     15.229942   21.027760   18.791403 H          1 MOL1         0.3769
      64    C19     23.598332   22.707206   21.305409 C.3        1 MOL1         0.2972
      65    H31     24.660446   22.834195   21.059196 H          1 MOL1         0.0751
      66    O16     23.316479   21.374820   21.774245 O.3        1 MOL1        -0.3740
      67    C20     23.175930   23.698360   22.416948 C.3        1 MOL1         0.1003
      68    H32     23.399448   24.711871   22.060329 H          1 MOL1         0.0783
      69    O17     23.938180   23.436022   23.608598 O.3        1 MOL1        -0.5519
      70    H33     23.870272   22.466582   23.792280 H          1 MOL1         0.3769
      71    C21     21.648136   23.614826   22.687665 C.3        1 MOL1         0.1053
      72    H34     21.444844   22.643423   23.157591 H          1 MOL1         0.0783
      73    O18     21.250356   24.669333   23.570063 O.3        1 MOL1        -0.5519
      74    H35     20.474658   24.308549   24.073900 H          1 MOL1         0.3769
      75    C22     20.817497   23.706053   21.375428 C.3        1 MOL1         0.1018
      76    H36     20.891726   24.736145   21.003113 H          1 MOL1         0.0783
      77    C23     21.367603   22.725025   20.295430 C.3        1 MOL1         0.1043
      78    H37     21.195223   21.697227   20.641240 H          1 MOL1         0.0783
      79    O19     22.787386   22.954813   20.141992 O.3        1 MOL1        -0.3740
      80    C24     20.753845   22.841047   18.878473 C.3        1 MOL1         0.0138
      81    H38     19.875112   22.190783   18.825070 H          1 MOL1         0.0794
      82    H39     21.477193   22.444076   18.153696 H          1 MOL1         0.0794
      83    O20     20.396220   24.180215   18.522275 O.3        1 MOL1        -0.5486
      84    H40     19.471979   24.309838   18.834951 H          1 MOL1         0.3769
      85    C25     24.995258   17.601930   21.939401 C.3        1 MOL1         0.2972
      86    H41     25.656148   16.727137   21.995708 H          1 MOL1         0.0751
      87    O21     23.620504   17.210710   21.756949 O.3        1 MOL1        -0.3740
      88    C26     25.103465   18.420873   23.247916 C.3        1 MOL1         0.1003
      89    H42     26.141917   18.764828   23.339800 H          1 MOL1         0.0783
      90    O22     24.775455   17.598921   24.378161 O.3        1 MOL1        -0.5519
      91    H43     24.152264   16.909298   24.049647 H          1 MOL1         0.3769
      92    C27     24.190595   19.667302   23.190420 C.3        1 MOL1         0.1053
      93    H44     23.148180   19.326438   23.175550 H          1 MOL1         0.0783
      94    O23     24.415330   20.482616   24.345578 O.3        1 MOL1        -0.5519
      95    H45     24.380464   19.859834   25.105197 H          1 MOL1         0.3769
      96    C28     24.449579   20.495273   21.908917 C.3        1 MOL1         0.1018
      97    H46     25.387987   21.050062   22.041623 H          1 MOL1         0.0783
      98    C29     24.520232   19.616494   20.626846 C.3        1 MOL1         0.1043
      99    H47     23.499336   19.281685   20.408557 H          1 MOL1         0.0783
     100    O24     25.367322   18.456671   20.839086 O.3        1 MOL1        -0.3740
     101    C30     25.041197   20.365340   19.376291 C.3        1 MOL1         0.0138
     102    H48     24.267533   21.066741   19.037784 H          1 MOL1         0.0794
     103    H49     25.191711   19.636862   18.568216 H          1 MOL1         0.0794
     104    O25     26.258974   21.072679   19.640798 O.3        1 MOL1        -0.5486
     105    H50     26.567767   21.461228   18.793414 H          1 MOL1         0.3769
     106    C31     21.285404   14.040411   20.406030 C.3        1 MOL1         0.2972
     107    H51     20.889717   13.136660   19.924839 H          1 MOL1         0.0751
     108    O26     20.231304   14.860292   20.947527 O.3        1 MOL1        -0.3740
     109    C32     22.285445   13.687790   21.539738 C.3        1 MOL1         0.1003
     110    H52     23.127002   13.156650   21.076317 H          1 MOL1         0.0783
     111    O27     21.690085   12.837259   22.531017 O.3        1 MOL1        -0.5519
     112    H53     20.905253   13.318303   22.897806 H          1 MOL1         0.3769
     113    C33     22.838012   14.980525   22.188987 C.3        1 MOL1         0.1053
     114    H54     22.004603   15.489996   22.690229 H          1 MOL1         0.0783
     115    O28     23.849590   14.647658   23.145490 O.3        1 MOL1        -0.5519
     116    H55     23.478586   13.899005   23.662903 H          1 MOL1         0.3769
     117    C34     23.419160   15.936447   21.116108 C.3        1 MOL1         0.1018
     118    H56     24.360472   15.508410   20.747110 H          1 MOL1         0.0783
     119    C35     22.449938   16.139782   19.916082 C.3        1 MOL1         0.1043
     120    H57     21.585297   16.718918   20.265450 H          1 MOL1         0.0783
     121    O29     22.002324   14.843878   19.443103 O.3        1 MOL1        -0.3740
     122    C36     23.050291   16.911854   18.711394 C.3        1 MOL1         0.0138
     123    H58     22.837957   17.979759   18.838847 H          1 MOL1         0.0794
     124    H59     22.524687   16.597241   17.799902 H          1 MOL1         0.0794
     125    O30     24.460896   16.715567   18.553067 O.3        1 MOL1        -0.5486
     126    H60     24.907559   17.212171   19.278409 H          1 MOL1         0.3769
     127    C1      18.938121   22.090669   25.207825 C.2        1 MOL1         0.6173
     128    O1      18.471955   21.830085   26.300610 O.co2      1 MOL1        -0.6755
     129    O2      19.218247   23.222447   24.856017 O.co2      1 MOL1        -0.6755
     130    C2      19.112448   21.004431   24.204822 C.2        1 MOL1        -0.1504
     131    H1      19.539699   21.300420   23.252147 H          1 MOL1         0.0814
     132    C3      18.744279   19.720014   24.401938 C.2        1 MOL1        -0.1394
     133    H2      18.302929   19.402150   25.345903 H          1 MOL1         0.0817
     134    C4      18.886295   18.644868   23.346128 C.3        1 MOL1        -0.1849
     135    H3      18.448104   18.997203   22.403527 H          1 MOL1         0.0736
     136    H4      18.307346   17.763463   23.647665 H          1 MOL1         0.0736
     137    C5      20.355572   18.241957   23.099279 C.3        1 MOL1        -0.1866
     138    H5      20.401898   17.529401   22.265554 H          1 MOL1         0.0738
     139    H6      20.929997   19.124348   22.788935 H          1 MOL1         0.0738
     140    C6      21.001265   17.605584   24.347759 C.3        1 MOL1        -0.2879
     141    H7      20.449220   16.710502   24.661417 H          1 MOL1         0.0750
     142    H8      22.035333   17.310597   24.141366 H          1 MOL1         0.0750
     143    H9      21.016640   18.311687   25.187817 H          1 MOL1         0.0750
@<TRIPOS>BOND
    1     1     2    1
    2     1     3    1
    3     1     4    1
    4     4     5    1
    5     4     6    1
    6     6     7    1
    7     4     8    1
    8     8     9    1
    9     8    10    1
   10    10    11    1
   11     8    12    1
   12    12    13    1
   13    12    14    1
   14    14    15    1
   15     1    16    1
   16    14    16    1
   17    14    17    1
   18    17    18    1
   19    17    19    1
   20    17    20    1
   21    20    21    1
   22    22    23    1
   23    22    24    1
   24    22    25    1
   25    25    26    1
   26    25    27    1
   27    27    28    1
   28    25    29    1
   29    29    30    1
   30    29    31    1
   31    31    32    1
   32     3    33    1
   33    29    33    1
   34    33    34    1
   35    33    35    1
   36    35    36    1
   37    22    37    1
   38    35    37    1
   39    35    38    1
   40    38    39    1
   41    38    40    1
   42    38    41    1
   43    41    42    1
   44    43    44    1
   45    43    45    1
   46    43    46    1
   47    46    47    1
   48    46    48    1
   49    48    49    1
   50    46    50    1
   51    50    51    1
   52    50    52    1
   53    52    53    1
   54    24    54    1
   55    50    54    1
   56    54    55    1
   57    54    56    1
   58    56    57    1
   59    43    58    1
   60    56    58    1
   61    56    59    1
   62    59    60    1
   63    59    61    1
   64    59    62    1
   65    62    63    1
   66    64    65    1
   67    64    66    1
   68    64    67    1
   69    67    68    1
   70    67    69    1
   71    69    70    1
   72    67    71    1
   73    71    72    1
   74    71    73    1
   75    73    74    1
   76    45    75    1
   77    71    75    1
   78    75    76    1
   79    75    77    1
   80    77    78    1
   81    64    79    1
   82    77    79    1
   83    77    80    1
   84    80    81    1
   85    80    82    1
   86    80    83    1
   87    83    84    1
   88    85    86    1
   89    85    87    1
   90    85    88    1
   91    88    89    1
   92    88    90    1
   93    90    91    1
   94    88    92    1
   95    92    93    1
   96    92    94    1
   97    94    95    1
   98    66    96    1
   99    92    96    1
  100    96    97    1
  101    96    98    1
  102    98    99    1
  103    85   100    1
  104    98   100    1
  105    98   101    1
  106   101   102    1
  107   101   103    1
  108   101   104    1
  109   104   105    1
  110   106   107    1
  111    12   108    1
  112   106   108    1
  113   106   109    1
  114   109   110    1
  115   109   111    1
  116   111   112    1
  117   109   113    1
  118   113   114    1
  119   113   115    1
  120   115   116    1
  121    87   117    1
  122   113   117    1
  123   117   118    1
  124   117   119    1
  125   119   120    1
  126   106   121    1
  127   119   121    1
  128   119   122    1
  129   122   123    1
  130   122   124    1
  131   122   125    1
  132   125   126    1
  133   127   128    1
  134   127   129    2
  135   127   130    1
  136   130   131    1
  137   130   132    2
  138   132   133    1
  139   132   134    1
  140   134   135    1
  141   134   136    1
  142   134   137    1
  143   137   138    1
  144   137   139    1
  145   137   140    1
  146   140   141    1
  147   140   142    1
  148   140   143    1
@<TRIPOS>SUBSTRUCTURE
       1 MOL1            1 RESIDUE      1      MOL     
       2 MOL1          143 RESIDUE      1      MOL     
@<SCITEGIC>MOL_PROPERTY
feprocess Rank
SciTegic.value.IntegerValue
103

@<SCITEGIC>MOL_PROPERTY
Conf_Id
SciTegic.value.IntegerValue
183

@<SCITEGIC>MOL_PROPERTY
Probability
SciTegic.value.DoubleValue
0.00

@<SCITEGIC>MOL_PROPERTY
G
SciTegic.value.DoubleValue
501.722

@<SCITEGIC>MOL_PROPERTY
E
SciTegic.value.DoubleValue
319.314

@<SCITEGIC>MOL_PROPERTY
-TS
SciTegic.value.DoubleValue
182.408

@<SCITEGIC>MOL_PROPERTY
U+W
SciTegic.value.DoubleValue
193.226

@<SCITEGIC>MOL_PROPERTY
U
SciTegic.value.DoubleValue
275.202

@<SCITEGIC>MOL_PROPERTY
W
SciTegic.value.DoubleValue
-81.976

@<SCITEGIC>MOL_PROPERTY
W(PB)
SciTegic.value.DoubleValue
-88.016

@<SCITEGIC>MOL_PROPERTY
W(SA)
SciTegic.value.DoubleValue
6.040

@<SCITEGIC>MOL_PROPERTY
Valence
SciTegic.value.DoubleValue
150.877

@<SCITEGIC>MOL_PROPERTY
Coulomb
SciTegic.value.DoubleValue
147.183

@<SCITEGIC>MOL_PROPERTY
VdW
SciTegic.value.DoubleValue
-22.858

@<SCITEGIC>MOL_PROPERTY
VdW6
SciTegic.value.DoubleValue
-177.867

@<SCITEGIC>MOL_PROPERTY
VdW12
SciTegic.value.DoubleValue
155.009

@<SCITEGIC>MOL_PROPERTY
Bond
SciTegic.value.DoubleValue
4.897

@<SCITEGIC>MOL_PROPERTY
Angle
SciTegic.value.DoubleValue
13.764

@<SCITEGIC>MOL_PROPERTY
Pdih
SciTegic.value.DoubleValue
132.204

@<SCITEGIC>MOL_PROPERTY
Idih
SciTegic.value.DoubleValue
0.012

@<SCITEGIC>MOL_PROPERTY
Tether
SciTegic.value.DoubleValue
0.000

@<TRIPOS>MOLECULE
CD_guest-s19_fast_vm2_rndm.mol2 : feprocess host+ligand conformer 104
         143         148           2
SMALL
USER_CHARGES
 
@<TRIPOS>ATOM
       1    C1      15.979306   15.008194   21.699872 C.3        1 MOL1         0.2972
       2    H1      14.908313   14.777044   21.762091 H          1 MOL1         0.0751
       3    O1      16.216426   16.430211   21.792731 O.3        1 MOL1        -0.3740
       4    C2      16.736536   14.286413   22.841835 C.3        1 MOL1         0.1003
       5    H2      16.669829   13.209500   22.640334 H          1 MOL1         0.0783
       6    O2      16.125804   14.540480   24.116788 O.3        1 MOL1        -0.5519
       7    H3      16.381088   15.453605   24.412026 H          1 MOL1         0.3769
       8    C3      18.233484   14.679329   22.795639 C.3        1 MOL1         0.1053
       9    H4      18.315365   15.765197   22.920880 H          1 MOL1         0.0783
      10    O3      18.974185   14.027003   23.833151 O.3        1 MOL1        -0.5519
      11    H5      18.745881   14.539825   24.653069 H          1 MOL1         0.3769
      12    C4      18.833673   14.338343   21.414262 C.3        1 MOL1         0.1018
      13    H6      18.984081   13.251975   21.357849 H          1 MOL1         0.0783
      14    C5      17.942984   14.833138   20.236524 C.3        1 MOL1         0.1043
      15    H7      18.062688   15.922269   20.184917 H          1 MOL1         0.0783
      16    O4      16.539368   14.526424   20.459566 O.3        1 MOL1        -0.3740
      17    C6      18.348851   14.253987   18.859414 C.3        1 MOL1         0.0138
      18    H8      19.294856   14.716678   18.548126 H          1 MOL1         0.0794
      19    H9      17.589220   14.540044   18.119650 H          1 MOL1         0.0794
      20    O5      18.492036   12.828918   18.896356 O.3        1 MOL1        -0.5486
      21    H10     18.666436   12.522716   17.979666 H          1 MOL1         0.3769
      22    C7      14.712543   20.160701   20.779836 C.3        1 MOL1         0.2972
      23    H11     14.139344   21.020647   20.410142 H          1 MOL1         0.0751
      24    O6      16.025875   20.543891   21.240632 O.3        1 MOL1        -0.3740
      25    C8      13.975645   19.464584   21.949518 C.3        1 MOL1         0.1003
      26    H12     13.021711   19.083012   21.563749 H          1 MOL1         0.0783
      27    O7      13.712795   20.408118   23.000695 O.3        1 MOL1        -0.5519
      28    H13     14.574672   20.831456   23.240681 H          1 MOL1         0.3769
      29    C9      14.808726   18.253921   22.448006 C.3        1 MOL1         0.1053
      30    H14     15.739734   18.644330   22.878461 H          1 MOL1         0.0783
      31    O8      14.096275   17.523140   23.451782 O.3        1 MOL1        -0.5519
      32    H15     14.788527   17.263708   24.115148 H          1 MOL1         0.3769
      33    C10     15.181781   17.297669   21.280617 C.3        1 MOL1         0.1018
      34    H16     14.279790   16.738233   21.000788 H          1 MOL1         0.0783
      35    C11     15.732618   18.061607   20.035119 C.3        1 MOL1         0.1043
      36    H17     16.736054   18.435001   20.278811 H          1 MOL1         0.0783
      37    O9      14.868348   19.183061   19.733472 O.3        1 MOL1        -0.3740
      38    C12     15.857716   17.231545   18.729618 C.3        1 MOL1         0.0138
      39    H18     16.875083   16.833355   18.656929 H          1 MOL1         0.0794
      40    H19     15.734109   17.909941   17.874742 H          1 MOL1         0.0794
      41    O10     14.909185   16.163125   18.637289 O.3        1 MOL1        -0.5486
      42    H20     15.249818   15.432154   19.204446 H          1 MOL1         0.3769
      43    C13     18.580250   23.814352   21.539269 C.3        1 MOL1         0.2972
      44    H21     18.991330   24.831749   21.559311 H          1 MOL1         0.0751
      45    O11     19.626719   22.828843   21.672958 O.3        1 MOL1        -0.3740
      46    C14     17.577730   23.639811   22.705483 C.3        1 MOL1         0.1003
      47    H22     16.773026   24.372686   22.561881 H          1 MOL1         0.0783
      48    O12     18.218664   23.889326   23.964228 O.3        1 MOL1        -0.5519
      49    H23     19.129907   23.529886   23.883061 H          1 MOL1         0.3769
      50    C15     16.947134   22.229613   22.678434 C.3        1 MOL1         0.1053
      51    H24     17.738259   21.486379   22.846477 H          1 MOL1         0.0783
      52    O13     15.963282   22.135968   23.712452 O.3        1 MOL1        -0.5519
      53    H25     16.393170   22.526351   24.506122 H          1 MOL1         0.3769
      54    C16     16.304565   21.954780   21.298597 C.3        1 MOL1         0.1018
      55    H26     15.394017   22.561903   21.207873 H          1 MOL1         0.0783
      56    C17     17.279152   22.269430   20.130985 C.3        1 MOL1         0.1043
      57    H27     18.064922   21.506503   20.150434 H          1 MOL1         0.0783
      58    O14     17.885671   23.578129   20.294301 O.3        1 MOL1        -0.3740
      59    C18     16.606904   22.212797   18.737908 C.3        1 MOL1         0.0138
      60    H28     16.368399   21.165696   18.507640 H          1 MOL1         0.0794
      61    H29     17.327151   22.555568   17.983027 H          1 MOL1         0.0794
      62    O15     15.414097   23.005378   18.684929 O.3        1 MOL1        -0.5486
      63    H30     15.071914   22.967020   17.765280 H          1 MOL1         0.3769
      64    C19     23.805221   22.748007   21.036189 C.3        1 MOL1         0.2972
      65    H31     24.793050   22.960736   20.607798 H          1 MOL1         0.0751
      66    O16     23.888557   21.715461   22.035655 O.3        1 MOL1        -0.3740
      67    C20     23.240362   24.023009   21.716441 C.3        1 MOL1         0.1003
      68    H32     23.234688   24.820350   20.961834 H          1 MOL1         0.0783
      69    O17     24.080494   24.412555   22.812890 O.3        1 MOL1        -0.5519
      70    H33     24.257514   23.588110   23.321362 H          1 MOL1         0.3769
      71    C21     21.784985   23.824844   22.211903 C.3        1 MOL1         0.1053
      72    H34     21.800649   23.127553   23.059116 H          1 MOL1         0.0783
      73    O18     21.269121   25.090054   22.635749 O.3        1 MOL1        -0.5519
      74    H35     21.962710   25.472108   23.217506 H          1 MOL1         0.3769
      75    C22     20.892877   23.216988   21.098991 C.3        1 MOL1         0.1018
      76    H36     20.758814   23.965917   20.306974 H          1 MOL1         0.0783
      77    C23     21.553912   21.957386   20.482670 C.3        1 MOL1         0.1043
      78    H37     21.635663   21.184610   21.257965 H          1 MOL1         0.0783
      79    O19     22.873337   22.322638   20.015372 O.3        1 MOL1        -0.3740
      80    C24     20.770455   21.340550   19.297368 C.3        1 MOL1         0.0138
      81    H38     20.000625   20.672231   19.703011 H          1 MOL1         0.0794
      82    H39     21.456060   20.715643   18.710248 H          1 MOL1         0.0794
      83    O20     20.164913   22.328935   18.453855 O.3        1 MOL1        -0.5486
      84    H40     19.519325   22.831303   19.001070 H          1 MOL1         0.3769
      85    C25     25.114369   17.779812   21.880760 C.3        1 MOL1         0.2972
      86    H41     25.640855   16.816709   21.853366 H          1 MOL1         0.0751
      87    O21     23.685270   17.602585   21.805521 O.3        1 MOL1        -0.3740
      88    C26     25.477951   18.522330   23.182047 C.3        1 MOL1         0.1003
      89    H42     26.561252   18.699985   23.171251 H          1 MOL1         0.0783
      90    O22     25.136548   17.723748   24.326795 O.3        1 MOL1        -0.5519
      91    H43     24.536949   17.006066   24.005594 H          1 MOL1         0.3769
      92    C27     24.768309   19.889499   23.242878 C.3        1 MOL1         0.1053
      93    H44     23.697157   19.687239   23.358060 H          1 MOL1         0.0783
      94    O23     25.249662   20.609513   24.382587 O.3        1 MOL1        -0.5519
      95    H45     25.199024   19.968714   25.125789 H          1 MOL1         0.3769
      96    C28     24.955203   20.735881   21.952844 C.3        1 MOL1         0.1018
      97    H46     25.935276   21.226940   22.001441 H          1 MOL1         0.0783
      98    C29     24.851223   19.887852   20.636929 C.3        1 MOL1         0.1043
      99    H47     23.787633   19.717398   20.435987 H          1 MOL1         0.0783
     100    O24     25.518538   18.606341   20.777342 O.3        1 MOL1        -0.3740
     101    C30     25.481405   20.538535   19.375734 C.3        1 MOL1         0.0138
     102    H48     24.808216   21.301153   18.970311 H          1 MOL1         0.0794
     103    H49     25.573911   19.767302   18.598937 H          1 MOL1         0.0794
     104    O25     26.764515   21.115223   19.646328 O.3        1 MOL1        -0.5486
     105    H50     27.142182   21.417467   18.791486 H          1 MOL1         0.3769
     106    C31     21.167448   14.391991   20.698025 C.3        1 MOL1         0.2972
     107    H51     20.839311   13.464265   20.211663 H          1 MOL1         0.0751
     108    O26     20.074409   15.065473   21.343138 O.3        1 MOL1        -0.3740
     109    C32     22.242373   14.095133   21.780380 C.3        1 MOL1         0.1003
     110    H52     23.062143   13.558871   21.285026 H          1 MOL1         0.0783
     111    O27     21.707182   13.268650   22.827112 O.3        1 MOL1        -0.5519
     112    H53     20.843663   13.666893   23.107073 H          1 MOL1         0.3769
     113    C33     22.822308   15.405056   22.373069 C.3        1 MOL1         0.1053
     114    H54     22.030281   15.912543   22.941699 H          1 MOL1         0.0783
     115    O28     23.922192   15.093549   23.235336 O.3        1 MOL1        -0.5519
     116    H55     23.608607   14.342919   23.787861 H          1 MOL1         0.3769
     117    C34     23.283402   16.343646   21.232658 C.3        1 MOL1         0.1018
     118    H56     24.113231   15.862512   20.697301 H          1 MOL1         0.0783
     119    C35     22.136997   16.589455   20.220944 C.3        1 MOL1         0.1043
     120    H57     21.301762   17.077203   20.741206 H          1 MOL1         0.0783
     121    O29     21.717033   15.299442   19.715633 O.3        1 MOL1        -0.3740
     122    C36     22.522455   17.487076   19.017561 C.3        1 MOL1         0.0138
     123    H58     22.376605   18.534426   19.307358 H          1 MOL1         0.0794
     124    H59     21.824718   17.286616   18.193638 H          1 MOL1         0.0794
     125    O30     23.872648   17.290550   18.578028 O.3        1 MOL1        -0.5486
     126    H60     24.466799   17.622614   19.290503 H          1 MOL1         0.3769
     127    C1      17.659742   17.181463   25.036247 C.2        1 MOL1         0.6173
     128    O1      18.268602   16.237495   25.505399 O.co2      1 MOL1        -0.6755
     129    O2      16.444271   17.229887   25.030168 O.co2      1 MOL1        -0.6755
     130    C2      18.396573   18.231456   24.281856 C.2        1 MOL1        -0.1504
     131    H1      17.793052   19.040696   23.879133 H          1 MOL1         0.0814
     132    C3      19.733420   18.211003   24.077598 C.2        1 MOL1        -0.1394
     133    H2      20.345429   17.401252   24.473697 H          1 MOL1         0.0817
     134    C4      20.482939   19.279371   23.310345 C.3        1 MOL1        -0.1849
     135    H3      19.802869   19.820824   22.639143 H          1 MOL1         0.0736
     136    H4      21.235779   18.802175   22.669809 H          1 MOL1         0.0736
     137    C5      21.187187   20.277039   24.254512 C.3        1 MOL1        -0.1866
     138    H5      21.872790   19.736116   24.921108 H          1 MOL1         0.0738
     139    H6      21.802832   20.959696   23.658389 H          1 MOL1         0.0738
     140    C6      20.195336   21.103798   25.096202 C.3        1 MOL1        -0.2879
     141    H7      19.462495   21.598328   24.451980 H          1 MOL1         0.0750
     142    H8      19.649687   20.464756   25.802217 H          1 MOL1         0.0750
     143    H9      20.722829   21.873224   25.674114 H          1 MOL1         0.0750
@<TRIPOS>BOND
    1     1     2    1
    2     1     3    1
    3     1     4    1
    4     4     5    1
    5     4     6    1
    6     6     7    1
    7     4     8    1
    8     8     9    1
    9     8    10    1
   10    10    11    1
   11     8    12    1
   12    12    13    1
   13    12    14    1
   14    14    15    1
   15     1    16    1
   16    14    16    1
   17    14    17    1
   18    17    18    1
   19    17    19    1
   20    17    20    1
   21    20    21    1
   22    22    23    1
   23    22    24    1
   24    22    25    1
   25    25    26    1
   26    25    27    1
   27    27    28    1
   28    25    29    1
   29    29    30    1
   30    29    31    1
   31    31    32    1
   32     3    33    1
   33    29    33    1
   34    33    34    1
   35    33    35    1
   36    35    36    1
   37    22    37    1
   38    35    37    1
   39    35    38    1
   40    38    39    1
   41    38    40    1
   42    38    41    1
   43    41    42    1
   44    43    44    1
   45    43    45    1
   46    43    46    1
   47    46    47    1
   48    46    48    1
   49    48    49    1
   50    46    50    1
   51    50    51    1
   52    50    52    1
   53    52    53    1
   54    24    54    1
   55    50    54    1
   56    54    55    1
   57    54    56    1
   58    56    57    1
   59    43    58    1
   60    56    58    1
   61    56    59    1
   62    59    60    1
   63    59    61    1
   64    59    62    1
   65    62    63    1
   66    64    65    1
   67    64    66    1
   68    64    67    1
   69    67    68    1
   70    67    69    1
   71    69    70    1
   72    67    71    1
   73    71    72    1
   74    71    73    1
   75    73    74    1
   76    45    75    1
   77    71    75    1
   78    75    76    1
   79    75    77    1
   80    77    78    1
   81    64    79    1
   82    77    79    1
   83    77    80    1
   84    80    81    1
   85    80    82    1
   86    80    83    1
   87    83    84    1
   88    85    86    1
   89    85    87    1
   90    85    88    1
   91    88    89    1
   92    88    90    1
   93    90    91    1
   94    88    92    1
   95    92    93    1
   96    92    94    1
   97    94    95    1
   98    66    96    1
   99    92    96    1
  100    96    97    1
  101    96    98    1
  102    98    99    1
  103    85   100    1
  104    98   100    1
  105    98   101    1
  106   101   102    1
  107   101   103    1
  108   101   104    1
  109   104   105    1
  110   106   107    1
  111    12   108    1
  112   106   108    1
  113   106   109    1
  114   109   110    1
  115   109   111    1
  116   111   112    1
  117   109   113    1
  118   113   114    1
  119   113   115    1
  120   115   116    1
  121    87   117    1
  122   113   117    1
  123   117   118    1
  124   117   119    1
  125   119   120    1
  126   106   121    1
  127   119   121    1
  128   119   122    1
  129   122   123    1
  130   122   124    1
  131   122   125    1
  132   125   126    1
  133   127   128    1
  134   127   129    2
  135   127   130    1
  136   130   131    1
  137   130   132    2
  138   132   133    1
  139   132   134    1
  140   134   135    1
  141   134   136    1
  142   134   137    1
  143   137   138    1
  144   137   139    1
  145   137   140    1
  146   140   141    1
  147   140   142    1
  148   140   143    1
@<TRIPOS>SUBSTRUCTURE
       1 MOL1            1 RESIDUE      1      MOL     
       2 MOL1          143 RESIDUE      1      MOL     
@<SCITEGIC>MOL_PROPERTY
feprocess Rank
SciTegic.value.IntegerValue
104

@<SCITEGIC>MOL_PROPERTY
Conf_Id
SciTegic.value.IntegerValue
93

@<SCITEGIC>MOL_PROPERTY
Probability
SciTegic.value.DoubleValue
0.00

@<SCITEGIC>MOL_PROPERTY
G
SciTegic.value.DoubleValue
501.754

@<SCITEGIC>MOL_PROPERTY
E
SciTegic.value.DoubleValue
318.670

@<SCITEGIC>MOL_PROPERTY
-TS
SciTegic.value.DoubleValue
183.085

@<SCITEGIC>MOL_PROPERTY
U+W
SciTegic.value.DoubleValue
192.581

@<SCITEGIC>MOL_PROPERTY
U
SciTegic.value.DoubleValue
269.860

@<SCITEGIC>MOL_PROPERTY
W
SciTegic.value.DoubleValue
-77.279

@<SCITEGIC>MOL_PROPERTY
W(PB)
SciTegic.value.DoubleValue
-83.284

@<SCITEGIC>MOL_PROPERTY
W(SA)
SciTegic.value.DoubleValue
6.005

@<SCITEGIC>MOL_PROPERTY
Valence
SciTegic.value.DoubleValue
148.663

@<SCITEGIC>MOL_PROPERTY
Coulomb
SciTegic.value.DoubleValue
142.980

@<SCITEGIC>MOL_PROPERTY
VdW
SciTegic.value.DoubleValue
-21.784

@<SCITEGIC>MOL_PROPERTY
VdW6
SciTegic.value.DoubleValue
-178.060

@<SCITEGIC>MOL_PROPERTY
VdW12
SciTegic.value.DoubleValue
156.277

@<SCITEGIC>MOL_PROPERTY
Bond
SciTegic.value.DoubleValue
5.122

@<SCITEGIC>MOL_PROPERTY
Angle
SciTegic.value.DoubleValue
15.422

@<SCITEGIC>MOL_PROPERTY
Pdih
SciTegic.value.DoubleValue
128.074

@<SCITEGIC>MOL_PROPERTY
Idih
SciTegic.value.DoubleValue
0.046

@<SCITEGIC>MOL_PROPERTY
Tether
SciTegic.value.DoubleValue
0.000

@<TRIPOS>MOLECULE
CD_guest-s19_fast_vm2_rndm.mol2 : feprocess host+ligand conformer 105
         143         148           2
SMALL
USER_CHARGES
 
@<TRIPOS>ATOM
       1    C1      16.158483   15.063665   21.741765 C.3        1 MOL1         0.2972
       2    H1      15.076438   14.900784   21.826914 H          1 MOL1         0.0751
       3    O1      16.494589   16.460962   21.811237 O.3        1 MOL1        -0.3740
       4    C2      16.887325   14.350633   22.904960 C.3        1 MOL1         0.1003
       5    H2      16.674566   13.276638   22.825180 H          1 MOL1         0.0783
       6    O2      16.407686   14.841389   24.167221 O.3        1 MOL1        -0.5519
       7    H3      16.118337   15.775183   24.017982 H          1 MOL1         0.3769
       8    C3      18.416088   14.549162   22.792155 C.3        1 MOL1         0.1053
       9    H4      18.636926   15.611645   22.966049 H          1 MOL1         0.0783
      10    O3      19.079134   13.749597   23.778329 O.3        1 MOL1        -0.5519
      11    H5      18.591787   13.922598   24.614477 H          1 MOL1         0.3769
      12    C4      18.930952   14.172409   21.382591 C.3        1 MOL1         0.1018
      13    H6      18.952806   13.077642   21.299547 H          1 MOL1         0.0783
      14    C5      18.069446   14.784291   20.241761 C.3        1 MOL1         0.1043
      15    H7      18.257267   15.865641   20.226212 H          1 MOL1         0.0783
      16    O4      16.660590   14.542486   20.494300 O.3        1 MOL1        -0.3740
      17    C6      18.411779   14.244809   18.832888 C.3        1 MOL1         0.0138
      18    H8      19.379397   14.663863   18.525526 H          1 MOL1         0.0794
      19    H9      17.660304   14.616790   18.123703 H          1 MOL1         0.0794
      20    O5      18.463597   12.812664   18.800239 O.3        1 MOL1        -0.5486
      21    H10     18.618459   12.542094   17.869128 H          1 MOL1         0.3769
      22    C7      14.813070   20.225707   21.189324 C.3        1 MOL1         0.2972
      23    H11     14.115337   21.041836   20.961490 H          1 MOL1         0.0751
      24    O6      16.134304   20.724068   21.465200 O.3        1 MOL1        -0.3740
      25    C8      14.326920   19.462774   22.446257 C.3        1 MOL1         0.1003
      26    H12     13.320956   19.078216   22.233713 H          1 MOL1         0.0783
      27    O7      14.269135   20.349851   23.574339 O.3        1 MOL1        -0.5519
      28    H13     14.944791   21.052113   23.413853 H          1 MOL1         0.3769
      29    C9      15.246420   18.257870   22.751548 C.3        1 MOL1         0.1053
      30    H14     16.230653   18.641348   23.051698 H          1 MOL1         0.0783
      31    O8      14.685318   17.480649   23.815178 O.3        1 MOL1        -0.5519
      32    H15     14.436774   18.136031   24.504456 H          1 MOL1         0.3769
      33    C10     15.434759   17.377687   21.494218 C.3        1 MOL1         0.1018
      34    H16     14.488222   16.863183   21.282399 H          1 MOL1         0.0783
      35    C11     15.853775   18.218122   20.255985 C.3        1 MOL1         0.1043
      36    H17     16.852400   18.630396   20.449083 H          1 MOL1         0.0783
      37    O9      14.904703   19.302253   20.082510 O.3        1 MOL1        -0.3740
      38    C12     15.938900   17.430583   18.922813 C.3        1 MOL1         0.0138
      39    H18     16.947184   17.009743   18.828722 H          1 MOL1         0.0794
      40    H19     15.817350   18.136817   18.090878 H          1 MOL1         0.0794
      41    O10     14.968842   16.381564   18.823175 O.3        1 MOL1        -0.5486
      42    H20     15.333743   15.613045   19.320471 H          1 MOL1         0.3769
      43    C13     18.603143   23.981753   20.656196 C.3        1 MOL1         0.2972
      44    H21     19.034357   24.916527   20.275392 H          1 MOL1         0.0751
      45    O11     19.556715   23.219497   21.414634 O.3        1 MOL1        -0.3740
      46    C14     17.410037   24.268984   21.601512 C.3        1 MOL1         0.1003
      47    H22     16.661842   24.835300   21.031978 H          1 MOL1         0.0783
      48    O12     17.840001   25.043326   22.733944 O.3        1 MOL1        -0.5519
      49    H23     18.669134   24.622191   23.074449 H          1 MOL1         0.3769
      50    C15     16.759197   22.946501   22.077381 C.3        1 MOL1         0.1053
      51    H24     17.472242   22.436653   22.737323 H          1 MOL1         0.0783
      52    O13     15.556771   23.233895   22.799398 O.3        1 MOL1        -0.5519
      53    H25     15.797153   23.953444   23.424081 H          1 MOL1         0.3769
      54    C16     16.450266   22.003434   20.888417 C.3        1 MOL1         0.1018
      55    H26     15.606534   22.423794   20.325612 H          1 MOL1         0.0783
      56    C17     17.668044   21.839757   19.935464 C.3        1 MOL1         0.1043
      57    H27     18.463956   21.302871   20.468894 H          1 MOL1         0.0783
      58    O14     18.133600   23.160050   19.566503 O.3        1 MOL1        -0.3740
      59    C18     17.385325   21.050562   18.630936 C.3        1 MOL1         0.0138
      60    H28     17.548723   19.984008   18.822774 H          1 MOL1         0.0794
      61    H29     18.128374   21.346262   17.878302 H          1 MOL1         0.0794
      62    O15     16.060065   21.250456   18.123999 O.3        1 MOL1        -0.5486
      63    H30     15.463906   20.675067   18.657103 H          1 MOL1         0.3769
      64    C19     23.610271   22.872949   22.067788 C.3        1 MOL1         0.2972
      65    H31     24.687613   23.025634   22.211285 H          1 MOL1         0.0751
      66    O16     23.261086   21.477624   22.106392 O.3        1 MOL1        -0.3740
      67    C20     22.827209   23.584440   23.196245 C.3        1 MOL1         0.1003
      68    H32     23.054240   24.656839   23.137764 H          1 MOL1         0.0783
      69    O17     23.234570   23.076906   24.476988 O.3        1 MOL1        -0.5519
      70    H33     23.508309   22.137586   24.334747 H          1 MOL1         0.3769
      71    C21     21.305159   23.402006   23.000401 C.3        1 MOL1         0.1053
      72    H34     21.070160   22.340870   23.156702 H          1 MOL1         0.0783
      73    O18     20.593987   24.201119   23.953308 O.3        1 MOL1        -0.5519
      74    H35     21.016191   24.001650   24.817911 H          1 MOL1         0.3769
      75    C22     20.865951   23.788401   21.568113 C.3        1 MOL1         0.1018
      76    H36     20.850858   24.883739   21.492517 H          1 MOL1         0.0783
      77    C23     21.784190   23.182014   20.468668 C.3        1 MOL1         0.1043
      78    H37     21.586945   22.102477   20.428755 H          1 MOL1         0.0783
      79    O19     23.178914   23.409230   20.800942 O.3        1 MOL1        -0.3740
      80    C24     21.532435   23.744000   19.049089 C.3        1 MOL1         0.0138
      81    H38     20.586358   23.333361   18.672724 H          1 MOL1         0.0794
      82    H39     22.326943   23.380745   18.383566 H          1 MOL1         0.0794
      83    O20     21.486842   25.176593   19.034360 O.3        1 MOL1        -0.5486
      84    H40     21.393474   25.461443   18.099349 H          1 MOL1         0.3769
      85    C25     24.987143   17.716682   21.491971 C.3        1 MOL1         0.2972
      86    H41     25.711581   16.920183   21.278790 H          1 MOL1         0.0751
      87    O21     23.666973   17.183986   21.702308 O.3        1 MOL1        -0.3740
      88    C26     25.402262   18.462121   22.784623 C.3        1 MOL1         0.1003
      89    H42     26.412566   18.861985   22.628191 H          1 MOL1         0.0783
      90    O22     25.416376   17.553907   23.897404 O.3        1 MOL1        -0.5519
      91    H43     24.743371   16.858564   23.699116 H          1 MOL1         0.3769
      92    C27     24.454558   19.651096   23.067379 C.3        1 MOL1         0.1053
      93    H44     23.459648   19.250942   23.308356 H          1 MOL1         0.0783
      94    O23     24.954563   20.411589   24.173113 O.3        1 MOL1        -0.5519
      95    H45     25.182128   19.744847   24.858612 H          1 MOL1         0.3769
      96    C28     24.323238   20.553447   21.818345 C.3        1 MOL1         0.1018
      97    H46     25.281442   21.062860   21.651345 H          1 MOL1         0.0783
      98    C29     23.953040   19.726726   20.555189 C.3        1 MOL1         0.1043
      99    H47     22.953433   19.297844   20.707591 H          1 MOL1         0.0783
     100    O24     24.925114   18.660146   20.400585 O.3        1 MOL1        -0.3740
     101    C30     23.906218   20.528106   19.228672 C.3        1 MOL1         0.0138
     102    H48     22.896366   20.936998   19.102941 H          1 MOL1         0.0794
     103    H49     24.065019   19.832131   18.394484 H          1 MOL1         0.0794
     104    O25     24.869578   21.586648   19.173446 O.3        1 MOL1        -0.5486
     105    H50     24.489053   22.340329   19.681977 H          1 MOL1         0.3769
     106    C31     21.250957   13.964344   20.632310 C.3        1 MOL1         0.2972
     107    H51     20.840505   13.039023   20.207903 H          1 MOL1         0.0751
     108    O26     20.242897   14.747975   21.293784 O.3        1 MOL1        -0.3740
     109    C32     22.346281   13.656143   21.683717 C.3        1 MOL1         0.1003
     110    H52     23.141234   13.091606   21.179428 H          1 MOL1         0.0783
     111    O27     21.811492   12.869609   22.761467 O.3        1 MOL1        -0.5519
     112    H53     20.965282   13.299668   23.045550 H          1 MOL1         0.3769
     113    C33     22.958466   14.969520   22.231623 C.3        1 MOL1         0.1053
     114    H54     22.186979   15.487546   22.818415 H          1 MOL1         0.0783
     115    O28     24.077987   14.663983   23.070465 O.3        1 MOL1        -0.5519
     116    H55     23.769354   13.938010   23.656894 H          1 MOL1         0.3769
     117    C34     23.400214   15.911941   21.083971 C.3        1 MOL1         0.1018
     118    H56     24.294686   15.484281   20.612368 H          1 MOL1         0.0783
     119    C35     22.288204   16.089168   20.010562 C.3        1 MOL1         0.1043
     120    H57     21.452502   16.635533   20.464552 H          1 MOL1         0.0783
     121    O29     21.840032   14.776441   19.595363 O.3        1 MOL1        -0.3740
     122    C36     22.701124   16.876275   18.740906 C.3        1 MOL1         0.0138
     123    H58     22.524140   17.943584   18.918056 H          1 MOL1         0.0794
     124    H59     22.032738   16.584974   17.919616 H          1 MOL1         0.0794
     125    O30     24.067693   16.667450   18.365131 O.3        1 MOL1        -0.5486
     126    H60     24.607459   17.270029   18.927437 H          1 MOL1         0.3769
     127    C1      19.877201   18.804691   19.828134 C.2        1 MOL1         0.6173
     128    O1      20.605801   19.683915   19.404692 O.co2      1 MOL1        -0.6755
     129    O2      19.300722   18.005049   19.115917 O.co2      1 MOL1        -0.6755
     130    C2      19.658419   18.681634   21.293471 C.2        1 MOL1        -0.1504
     131    H1      18.996985   17.879033   21.610157 H          1 MOL1         0.0814
     132    C3      20.224502   19.500244   22.207170 C.2        1 MOL1        -0.1394
     133    H2      20.882590   20.309360   21.897756 H          1 MOL1         0.0817
     134    C4      19.985007   19.381569   23.694483 C.3        1 MOL1        -0.1849
     135    H3      20.902539   19.638627   24.240281 H          1 MOL1         0.0736
     136    H4      19.744374   18.341767   23.954141 H          1 MOL1         0.0736
     137    C5      18.838080   20.309451   24.141368 C.3        1 MOL1        -0.1866
     138    H5      19.116652   21.354300   23.953301 H          1 MOL1         0.0738
     139    H6      17.944248   20.105643   23.538116 H          1 MOL1         0.0738
     140    C6      18.500779   20.129125   25.633896 C.3        1 MOL1        -0.2879
     141    H7      19.371944   20.354788   26.262447 H          1 MOL1         0.0750
     142    H8      17.684893   20.801727   25.928377 H          1 MOL1         0.0750
     143    H9      18.183153   19.099095   25.841938 H          1 MOL1         0.0750
@<TRIPOS>BOND
    1     1     2    1
    2     1     3    1
    3     1     4    1
    4     4     5    1
    5     4     6    1
    6     6     7    1
    7     4     8    1
    8     8     9    1
    9     8    10    1
   10    10    11    1
   11     8    12    1
   12    12    13    1
   13    12    14    1
   14    14    15    1
   15     1    16    1
   16    14    16    1
   17    14    17    1
   18    17    18    1
   19    17    19    1
   20    17    20    1
   21    20    21    1
   22    22    23    1
   23    22    24    1
   24    22    25    1
   25    25    26    1
   26    25    27    1
   27    27    28    1
   28    25    29    1
   29    29    30    1
   30    29    31    1
   31    31    32    1
   32     3    33    1
   33    29    33    1
   34    33    34    1
   35    33    35    1
   36    35    36    1
   37    22    37    1
   38    35    37    1
   39    35    38    1
   40    38    39    1
   41    38    40    1
   42    38    41    1
   43    41    42    1
   44    43    44    1
   45    43    45    1
   46    43    46    1
   47    46    47    1
   48    46    48    1
   49    48    49    1
   50    46    50    1
   51    50    51    1
   52    50    52    1
   53    52    53    1
   54    24    54    1
   55    50    54    1
   56    54    55    1
   57    54    56    1
   58    56    57    1
   59    43    58    1
   60    56    58    1
   61    56    59    1
   62    59    60    1
   63    59    61    1
   64    59    62    1
   65    62    63    1
   66    64    65    1
   67    64    66    1
   68    64    67    1
   69    67    68    1
   70    67    69    1
   71    69    70    1
   72    67    71    1
   73    71    72    1
   74    71    73    1
   75    73    74    1
   76    45    75    1
   77    71    75    1
   78    75    76    1
   79    75    77    1
   80    77    78    1
   81    64    79    1
   82    77    79    1
   83    77    80    1
   84    80    81    1
   85    80    82    1
   86    80    83    1
   87    83    84    1
   88    85    86    1
   89    85    87    1
   90    85    88    1
   91    88    89    1
   92    88    90    1
   93    90    91    1
   94    88    92    1
   95    92    93    1
   96    92    94    1
   97    94    95    1
   98    66    96    1
   99    92    96    1
  100    96    97    1
  101    96    98    1
  102    98    99    1
  103    85   100    1
  104    98   100    1
  105    98   101    1
  106   101   102    1
  107   101   103    1
  108   101   104    1
  109   104   105    1
  110   106   107    1
  111    12   108    1
  112   106   108    1
  113   106   109    1
  114   109   110    1
  115   109   111    1
  116   111   112    1
  117   109   113    1
  118   113   114    1
  119   113   115    1
  120   115   116    1
  121    87   117    1
  122   113   117    1
  123   117   118    1
  124   117   119    1
  125   119   120    1
  126   106   121    1
  127   119   121    1
  128   119   122    1
  129   122   123    1
  130   122   124    1
  131   122   125    1
  132   125   126    1
  133   127   128    1
  134   127   129    2
  135   127   130    1
  136   130   131    1
  137   130   132    2
  138   132   133    1
  139   132   134    1
  140   134   135    1
  141   134   136    1
  142   134   137    1
  143   137   138    1
  144   137   139    1
  145   137   140    1
  146   140   141    1
  147   140   142    1
  148   140   143    1
@<TRIPOS>SUBSTRUCTURE
       1 MOL1            1 RESIDUE      1      MOL     
       2 MOL1          143 RESIDUE      1      MOL     
@<SCITEGIC>MOL_PROPERTY
feprocess Rank
SciTegic.value.IntegerValue
105

@<SCITEGIC>MOL_PROPERTY
Conf_Id
SciTegic.value.IntegerValue
390

@<SCITEGIC>MOL_PROPERTY
Probability
SciTegic.value.DoubleValue
0.00

@<SCITEGIC>MOL_PROPERTY
G
SciTegic.value.DoubleValue
501.765

@<SCITEGIC>MOL_PROPERTY
E
SciTegic.value.DoubleValue
321.560

@<SCITEGIC>MOL_PROPERTY
-TS
SciTegic.value.DoubleValue
180.206

@<SCITEGIC>MOL_PROPERTY
U+W
SciTegic.value.DoubleValue
195.472

@<SCITEGIC>MOL_PROPERTY
U
SciTegic.value.DoubleValue
262.346

@<SCITEGIC>MOL_PROPERTY
W
SciTegic.value.DoubleValue
-66.874

@<SCITEGIC>MOL_PROPERTY
W(PB)
SciTegic.value.DoubleValue
-72.799

@<SCITEGIC>MOL_PROPERTY
W(SA)
SciTegic.value.DoubleValue
5.925

@<SCITEGIC>MOL_PROPERTY
Valence
SciTegic.value.DoubleValue
149.854

@<SCITEGIC>MOL_PROPERTY
Coulomb
SciTegic.value.DoubleValue
141.837

@<SCITEGIC>MOL_PROPERTY
VdW
SciTegic.value.DoubleValue
-29.345

@<SCITEGIC>MOL_PROPERTY
VdW6
SciTegic.value.DoubleValue
-180.931

@<SCITEGIC>MOL_PROPERTY
VdW12
SciTegic.value.DoubleValue
151.586

@<SCITEGIC>MOL_PROPERTY
Bond
SciTegic.value.DoubleValue
4.216

@<SCITEGIC>MOL_PROPERTY
Angle
SciTegic.value.DoubleValue
12.629

@<SCITEGIC>MOL_PROPERTY
Pdih
SciTegic.value.DoubleValue
133.008

@<SCITEGIC>MOL_PROPERTY
Idih
SciTegic.value.DoubleValue
0.001

@<SCITEGIC>MOL_PROPERTY
Tether
SciTegic.value.DoubleValue
0.000

@<TRIPOS>MOLECULE
CD_guest-s19_fast_vm2_rndm.mol2 : feprocess host+ligand conformer 106
         143         148           2
SMALL
USER_CHARGES
 
@<TRIPOS>ATOM
       1    C1      16.258240   15.314889   20.868325 C.3        1 MOL1         0.2972
       2    H1      15.236719   15.115823   20.519367 H          1 MOL1         0.0751
       3    O1      16.377047   16.630124   21.435989 O.3        1 MOL1        -0.3740
       4    C2      16.663964   14.308818   21.978654 C.3        1 MOL1         0.1003
       5    H2      16.548763   13.298208   21.565969 H          1 MOL1         0.0783
       6    O2      15.809838   14.454589   23.125803 O.3        1 MOL1        -0.5519
       7    H3      15.703960   15.425714   23.285404 H          1 MOL1         0.3769
       8    C3      18.148183   14.492337   22.390415 C.3        1 MOL1         0.1053
       9    H4      18.251043   15.464280   22.892986 H          1 MOL1         0.0783
      10    O3      18.531901   13.439762   23.282078 O.3        1 MOL1        -0.5519
      11    H5      17.801456   13.380828   23.937451 H          1 MOL1         0.3769
      12    C4      19.066613   14.493668   21.145213 C.3        1 MOL1         0.1018
      13    H6      19.048891   13.491673   20.696309 H          1 MOL1         0.0783
      14    C5      18.574341   15.518913   20.091026 C.3        1 MOL1         0.1043
      15    H7      18.634280   16.523815   20.525323 H          1 MOL1         0.0783
      16    O4      17.196137   15.208843   19.772591 O.3        1 MOL1        -0.3740
      17    C6      19.390381   15.543324   18.773228 C.3        1 MOL1         0.0138
      18    H8      20.234681   16.231955   18.899992 H          1 MOL1         0.0794
      19    H9      18.757473   15.961908   17.979511 H          1 MOL1         0.0794
      20    O5      19.876424   14.252849   18.384618 O.3        1 MOL1        -0.5486
      21    H10     20.642599   14.044919   18.969004 H          1 MOL1         0.3769
      22    C7      14.634032   20.349582   21.470262 C.3        1 MOL1         0.2972
      23    H11     13.981834   21.232508   21.461954 H          1 MOL1         0.0751
      24    O6      16.026196   20.720491   21.489805 O.3        1 MOL1        -0.3740
      25    C8      14.340822   19.495511   22.726093 C.3        1 MOL1         0.1003
      26    H12     13.298150   19.157605   22.665068 H          1 MOL1         0.0783
      27    O7      14.519632   20.281840   23.914279 O.3        1 MOL1        -0.5519
      28    H13     15.187778   20.974927   23.695247 H          1 MOL1         0.3769
      29    C9      15.250401   18.246732   22.759010 C.3        1 MOL1         0.1053
      30    H14     16.279438   18.591081   22.919786 H          1 MOL1         0.0783
      31    O8      14.859815   17.389557   23.837670 O.3        1 MOL1        -0.5519
      32    H15     14.771383   17.984444   24.615100 H          1 MOL1         0.3769
      33    C10     15.199415   17.459191   21.425820 C.3        1 MOL1         0.1018
      34    H16     14.277255   16.863409   21.412472 H          1 MOL1         0.0783
      35    C11     15.271930   18.373597   20.167356 C.3        1 MOL1         0.1043
      36    H17     16.308663   18.715738   20.074755 H          1 MOL1         0.0783
      37    O9      14.403473   19.528678   20.307645 O.3        1 MOL1        -0.3740
      38    C12     14.903428   17.658709   18.844932 C.3        1 MOL1         0.0138
      39    H18     15.717269   16.973522   18.575333 H          1 MOL1         0.0794
      40    H19     14.838309   18.410558   18.046906 H          1 MOL1         0.0794
      41    O10     13.670597   16.935629   18.947837 O.3        1 MOL1        -0.5486
      42    H20     13.466366   16.567470   18.060640 H          1 MOL1         0.3769
      43    C13     18.565672   23.914557   20.630823 C.3        1 MOL1         0.2972
      44    H21     19.016257   24.843989   20.259418 H          1 MOL1         0.0751
      45    O11     19.551717   23.040980   21.215254 O.3        1 MOL1        -0.3740
      46    C14     17.463074   24.203227   21.685138 C.3        1 MOL1         0.1003
      47    H22     16.681748   24.788504   21.183111 H          1 MOL1         0.0783
      48    O12     17.970345   24.964406   22.791229 O.3        1 MOL1        -0.5519
      49    H23     18.735765   24.461157   23.169128 H          1 MOL1         0.3769
      50    C15     16.821759   22.880436   22.175428 C.3        1 MOL1         0.1053
      51    H24     17.584995   22.306538   22.720014 H          1 MOL1         0.0783
      52    O13     15.721344   23.170808   23.043838 O.3        1 MOL1        -0.5519
      53    H25     16.054373   23.862229   23.658028 H          1 MOL1         0.3769
      54    C16     16.334890   22.029197   20.975536 C.3        1 MOL1         0.1018
      55    H26     15.453999   22.517476   20.538401 H          1 MOL1         0.0783
      56    C17     17.428730   21.881493   19.879544 C.3        1 MOL1         0.1043
      57    H27     18.244317   21.270193   20.285099 H          1 MOL1         0.0783
      58    O14     17.940316   23.195915   19.544338 O.3        1 MOL1        -0.3740
      59    C18     16.958276   21.192566   18.571544 C.3        1 MOL1         0.0138
      60    H28     17.143217   20.115313   18.658258 H          1 MOL1         0.0794
      61    H29     17.585312   21.551093   17.744347 H          1 MOL1         0.0794
      62    O15     15.575947   21.421483   18.271742 O.3        1 MOL1        -0.5486
      63    H30     15.048261   20.878682   18.903384 H          1 MOL1         0.3769
      64    C19     23.501880   22.643186   22.284391 C.3        1 MOL1         0.2972
      65    H31     24.552277   22.772425   22.575466 H          1 MOL1         0.0751
      66    O16     23.209703   21.254518   22.014165 O.3        1 MOL1        -0.3740
      67    C20     22.583695   23.179617   23.414782 C.3        1 MOL1         0.1003
      68    H32     22.784943   24.254580   23.508004 H          1 MOL1         0.0783
      69    O17     22.902149   22.546978   24.665178 O.3        1 MOL1        -0.5519
      70    H33     22.058397   22.375526   25.156405 H          1 MOL1         0.3769
      71    C21     21.089927   23.022167   23.037104 C.3        1 MOL1         0.1053
      72    H34     20.851344   21.951803   22.994728 H          1 MOL1         0.0783
      73    O18     20.259723   23.676580   24.006012 O.3        1 MOL1        -0.5519
      74    H35     20.282928   23.119477   24.827035 H          1 MOL1         0.3769
      75    C22     20.794092   23.630618   21.644275 C.3        1 MOL1         0.1018
      76    H36     20.722986   24.722082   21.742638 H          1 MOL1         0.0783
      77    C23     21.854940   23.252350   20.573546 C.3        1 MOL1         0.1043
      78    H37     21.681161   22.202359   20.317251 H          1 MOL1         0.0783
      79    O19     23.206748   23.394184   21.085820 O.3        1 MOL1        -0.3740
      80    C24     21.733038   24.071222   19.265713 C.3        1 MOL1         0.0138
      81    H38     20.819080   23.758662   18.742702 H          1 MOL1         0.0794
      82    H39     22.580903   23.823951   18.613089 H          1 MOL1         0.0794
      83    O20     21.692052   25.481573   19.514964 O.3        1 MOL1        -0.5486
      84    H40     21.695912   25.938391   18.645575 H          1 MOL1         0.3769
      85    C25     25.093206   17.658011   21.070299 C.3        1 MOL1         0.2972
      86    H41     25.759840   16.870690   20.695354 H          1 MOL1         0.0751
      87    O21     23.885676   17.111659   21.632440 O.3        1 MOL1        -0.3740
      88    C26     25.785366   18.469211   22.192038 C.3        1 MOL1         0.1003
      89    H42     26.711039   18.883562   21.771936 H          1 MOL1         0.0783
      90    O22     26.106525   17.608927   23.298165 O.3        1 MOL1        -0.5519
      91    H43     25.316212   17.033946   23.450220 H          1 MOL1         0.3769
      92    C27     24.906455   19.654535   22.674192 C.3        1 MOL1         0.1053
      93    H44     24.069493   19.246825   23.256469 H          1 MOL1         0.0783
      94    O23     25.709323   20.500569   23.503450 O.3        1 MOL1        -0.5519
      95    H45     26.094649   19.908297   24.185038 H          1 MOL1         0.3769
      96    C28     24.312576   20.476210   21.496604 C.3        1 MOL1         0.1018
      97    H46     25.104782   21.117152   21.088477 H          1 MOL1         0.0783
      98    C29     23.758206   19.573154   20.358057 C.3        1 MOL1         0.1043
      99    H47     22.856851   19.070178   20.723770 H          1 MOL1         0.0783
     100    O24     24.745885   18.575752   20.013261 O.3        1 MOL1        -0.3740
     101    C30     23.360868   20.323913   19.060712 C.3        1 MOL1         0.0138
     102    H48     22.301316   20.597628   19.127265 H          1 MOL1         0.0794
     103    H49     23.447710   19.629074   18.214756 H          1 MOL1         0.0794
     104    O25     24.154711   21.492199   18.815298 O.3        1 MOL1        -0.5486
     105    H50     23.976174   22.129913   19.544906 H          1 MOL1         0.3769
     106    C31     21.390310   13.833834   21.454218 C.3        1 MOL1         0.2972
     107    H51     20.935961   12.837904   21.373956 H          1 MOL1         0.0751
     108    O26     20.389499   14.865318   21.579095 O.3        1 MOL1        -0.3740
     109    C32     22.311258   13.881594   22.695909 C.3        1 MOL1         0.1003
     110    H52     23.098121   13.128855   22.557001 H          1 MOL1         0.0783
     111    O27     21.564167   13.577319   23.884697 O.3        1 MOL1        -0.5519
     112    H53     20.618807   13.797069   23.692707 H          1 MOL1         0.3769
     113    C33     22.986711   15.264654   22.818354 C.3        1 MOL1         0.1053
     114    H54     22.198864   15.991088   23.046431 H          1 MOL1         0.0783
     115    O28     23.947373   15.243931   23.880445 O.3        1 MOL1        -0.5519
     116    H55     23.478827   14.827500   24.637453 H          1 MOL1         0.3769
     117    C34     23.676090   15.692856   21.499171 C.3        1 MOL1         0.1018
     118    H56     24.623433   15.144958   21.411222 H          1 MOL1         0.0783
     119    C35     22.787854   15.445221   20.244046 C.3        1 MOL1         0.1043
     120    H57     21.992510   16.200239   20.248500 H          1 MOL1         0.0783
     121    O29     22.189167   14.123506   20.289682 O.3        1 MOL1        -0.3740
     122    C36     23.541903   15.573802   18.898432 C.3        1 MOL1         0.0138
     123    H58     23.745664   16.634625   18.706799 H          1 MOL1         0.0794
     124    H59     22.882197   15.223394   18.093198 H          1 MOL1         0.0794
     125    O30     24.768046   14.832130   18.893423 O.3        1 MOL1        -0.5486
     126    H60     25.159036   14.909471   17.995978 H          1 MOL1         0.3769
     127    C1      19.644118   20.971881   26.005707 C.2        1 MOL1         0.6173
     128    O1      18.633320   21.062743   26.673859 O.co2      1 MOL1        -0.6755
     129    O2      20.537013   21.801340   26.035815 O.co2      1 MOL1        -0.6755
     130    C2      19.751630   19.819220   25.071266 C.2        1 MOL1        -0.1504
     131    H1      18.896148   19.148758   25.039937 H          1 MOL1         0.0814
     132    C3      20.825899   19.593289   24.281893 C.2        1 MOL1        -0.1394
     133    H2      21.691250   20.250962   24.315604 H          1 MOL1         0.0817
     134    C4      20.942802   18.444598   23.307537 C.3        1 MOL1        -0.1849
     135    H3      20.432464   17.553213   23.696267 H          1 MOL1         0.0736
     136    H4      22.002157   18.181765   23.216888 H          1 MOL1         0.0736
     137    C5      20.400727   18.795313   21.905733 C.3        1 MOL1        -0.1866
     138    H5      20.858513   19.727491   21.549625 H          1 MOL1         0.0738
     139    H6      20.691524   18.001785   21.205507 H          1 MOL1         0.0738
     140    C6      18.869945   18.939809   21.889317 C.3        1 MOL1        -0.2879
     141    H7      18.551655   19.824664   22.455031 H          1 MOL1         0.0750
     142    H8      18.500803   19.038488   20.862562 H          1 MOL1         0.0750
     143    H9      18.400592   18.058309   22.340262 H          1 MOL1         0.0750
@<TRIPOS>BOND
    1     1     2    1
    2     1     3    1
    3     1     4    1
    4     4     5    1
    5     4     6    1
    6     6     7    1
    7     4     8    1
    8     8     9    1
    9     8    10    1
   10    10    11    1
   11     8    12    1
   12    12    13    1
   13    12    14    1
   14    14    15    1
   15     1    16    1
   16    14    16    1
   17    14    17    1
   18    17    18    1
   19    17    19    1
   20    17    20    1
   21    20    21    1
   22    22    23    1
   23    22    24    1
   24    22    25    1
   25    25    26    1
   26    25    27    1
   27    27    28    1
   28    25    29    1
   29    29    30    1
   30    29    31    1
   31    31    32    1
   32     3    33    1
   33    29    33    1
   34    33    34    1
   35    33    35    1
   36    35    36    1
   37    22    37    1
   38    35    37    1
   39    35    38    1
   40    38    39    1
   41    38    40    1
   42    38    41    1
   43    41    42    1
   44    43    44    1
   45    43    45    1
   46    43    46    1
   47    46    47    1
   48    46    48    1
   49    48    49    1
   50    46    50    1
   51    50    51    1
   52    50    52    1
   53    52    53    1
   54    24    54    1
   55    50    54    1
   56    54    55    1
   57    54    56    1
   58    56    57    1
   59    43    58    1
   60    56    58    1
   61    56    59    1
   62    59    60    1
   63    59    61    1
   64    59    62    1
   65    62    63    1
   66    64    65    1
   67    64    66    1
   68    64    67    1
   69    67    68    1
   70    67    69    1
   71    69    70    1
   72    67    71    1
   73    71    72    1
   74    71    73    1
   75    73    74    1
   76    45    75    1
   77    71    75    1
   78    75    76    1
   79    75    77    1
   80    77    78    1
   81    64    79    1
   82    77    79    1
   83    77    80    1
   84    80    81    1
   85    80    82    1
   86    80    83    1
   87    83    84    1
   88    85    86    1
   89    85    87    1
   90    85    88    1
   91    88    89    1
   92    88    90    1
   93    90    91    1
   94    88    92    1
   95    92    93    1
   96    92    94    1
   97    94    95    1
   98    66    96    1
   99    92    96    1
  100    96    97    1
  101    96    98    1
  102    98    99    1
  103    85   100    1
  104    98   100    1
  105    98   101    1
  106   101   102    1
  107   101   103    1
  108   101   104    1
  109   104   105    1
  110   106   107    1
  111    12   108    1
  112   106   108    1
  113   106   109    1
  114   109   110    1
  115   109   111    1
  116   111   112    1
  117   109   113    1
  118   113   114    1
  119   113   115    1
  120   115   116    1
  121    87   117    1
  122   113   117    1
  123   117   118    1
  124   117   119    1
  125   119   120    1
  126   106   121    1
  127   119   121    1
  128   119   122    1
  129   122   123    1
  130   122   124    1
  131   122   125    1
  132   125   126    1
  133   127   128    1
  134   127   129    2
  135   127   130    1
  136   130   131    1
  137   130   132    2
  138   132   133    1
  139   132   134    1
  140   134   135    1
  141   134   136    1
  142   134   137    1
  143   137   138    1
  144   137   139    1
  145   137   140    1
  146   140   141    1
  147   140   142    1
  148   140   143    1
@<TRIPOS>SUBSTRUCTURE
       1 MOL1            1 RESIDUE      1      MOL     
       2 MOL1          143 RESIDUE      1      MOL     
@<SCITEGIC>MOL_PROPERTY
feprocess Rank
SciTegic.value.IntegerValue
106

@<SCITEGIC>MOL_PROPERTY
Conf_Id
SciTegic.value.IntegerValue
300

@<SCITEGIC>MOL_PROPERTY
Probability
SciTegic.value.DoubleValue
0.00

@<SCITEGIC>MOL_PROPERTY
G
SciTegic.value.DoubleValue
501.772

@<SCITEGIC>MOL_PROPERTY
E
SciTegic.value.DoubleValue
318.517

@<SCITEGIC>MOL_PROPERTY
-TS
SciTegic.value.DoubleValue
183.255

@<SCITEGIC>MOL_PROPERTY
U+W
SciTegic.value.DoubleValue
192.429

@<SCITEGIC>MOL_PROPERTY
U
SciTegic.value.DoubleValue
272.307

@<SCITEGIC>MOL_PROPERTY
W
SciTegic.value.DoubleValue
-79.879

@<SCITEGIC>MOL_PROPERTY
W(PB)
SciTegic.value.DoubleValue
-85.963

@<SCITEGIC>MOL_PROPERTY
W(SA)
SciTegic.value.DoubleValue
6.084

@<SCITEGIC>MOL_PROPERTY
Valence
SciTegic.value.DoubleValue
149.300

@<SCITEGIC>MOL_PROPERTY
Coulomb
SciTegic.value.DoubleValue
146.303

@<SCITEGIC>MOL_PROPERTY
VdW
SciTegic.value.DoubleValue
-23.297

@<SCITEGIC>MOL_PROPERTY
VdW6
SciTegic.value.DoubleValue
-177.259

@<SCITEGIC>MOL_PROPERTY
VdW12
SciTegic.value.DoubleValue
153.962

@<SCITEGIC>MOL_PROPERTY
Bond
SciTegic.value.DoubleValue
4.818

@<SCITEGIC>MOL_PROPERTY
Angle
SciTegic.value.DoubleValue
13.778

@<SCITEGIC>MOL_PROPERTY
Pdih
SciTegic.value.DoubleValue
130.699

@<SCITEGIC>MOL_PROPERTY
Idih
SciTegic.value.DoubleValue
0.005

@<SCITEGIC>MOL_PROPERTY
Tether
SciTegic.value.DoubleValue
0.000

@<TRIPOS>MOLECULE
CD_guest-s19_fast_vm2_rndm.mol2 : feprocess host+ligand conformer 107
         143         148           2
SMALL
USER_CHARGES
 
@<TRIPOS>ATOM
       1    C1      16.199671   15.071639   21.977258 C.3        1 MOL1         0.2972
       2    H1      15.127164   15.024956   22.207183 H          1 MOL1         0.0751
       3    O1      16.624336   16.415470   21.677258 O.3        1 MOL1        -0.3740
       4    C2      17.021708   14.562871   23.183007 C.3        1 MOL1         0.1003
       5    H2      16.769806   13.505449   23.336380 H          1 MOL1         0.0783
       6    O2      16.694343   15.308157   24.366733 O.3        1 MOL1        -0.5519
       7    H3      16.240432   16.133618   24.068740 H          1 MOL1         0.3769
       8    C3      18.533914   14.659685   22.882091 C.3        1 MOL1         0.1053
       9    H4      18.799008   15.722397   22.829400 H          1 MOL1         0.0783
      10    O3      19.272925   14.039917   23.939114 O.3        1 MOL1        -0.5519
      11    H5      18.882300   14.404960   24.764311 H          1 MOL1         0.3769
      12    C4      18.907640   14.015317   21.523306 C.3        1 MOL1         0.1018
      13    H6      19.026719   12.932713   21.663256 H          1 MOL1         0.0783
      14    C5      17.893013   14.314901   20.379788 C.3        1 MOL1         0.1043
      15    H7      18.089615   15.336392   20.033863 H          1 MOL1         0.0783
      16    O4      16.520252   14.239792   20.844222 O.3        1 MOL1        -0.3740
      17    C6      18.049551   13.387586   19.151304 C.3        1 MOL1         0.0138
      18    H8      18.987713   13.641399   18.639562 H          1 MOL1         0.0794
      19    H9      17.230223   13.593686   18.449378 H          1 MOL1         0.0794
      20    O5      18.054876   12.002754   19.518439 O.3        1 MOL1        -0.5486
      21    H10     18.075633   11.474626   18.690501 H          1 MOL1         0.3769
      22    C7      14.992245   20.170874   20.893627 C.3        1 MOL1         0.2972
      23    H11     14.324388   20.987664   20.590091 H          1 MOL1         0.0751
      24    O6      16.289261   20.663960   21.278000 O.3        1 MOL1        -0.3740
      25    C8      14.382658   19.417615   22.103586 C.3        1 MOL1         0.1003
      26    H12     13.409199   19.019917   21.788511 H          1 MOL1         0.0783
      27    O7      14.191511   20.311949   23.210802 O.3        1 MOL1        -0.5519
      28    H13     14.759296   21.102001   23.039167 H          1 MOL1         0.3769
      29    C9      15.275517   18.224616   22.517137 C.3        1 MOL1         0.1053
      30    H14     16.221327   18.626470   22.902624 H          1 MOL1         0.0783
      31    O8      14.622911   17.463703   23.538423 O.3        1 MOL1        -0.5519
      32    H15     14.283587   18.134258   24.173004 H          1 MOL1         0.3769
      33    C10     15.583601   17.328042   21.293020 C.3        1 MOL1         0.1018
      34    H16     14.666379   16.803448   20.994066 H          1 MOL1         0.0783
      35    C11     16.112319   18.152822   20.088829 C.3        1 MOL1         0.1043
      36    H17     17.087692   18.568414   20.370158 H          1 MOL1         0.0783
      37    O9      15.187947   19.235317   19.809245 O.3        1 MOL1        -0.3740
      38    C12     16.329307   17.332857   18.789744 C.3        1 MOL1         0.0138
      39    H18     17.361498   16.961486   18.782764 H          1 MOL1         0.0794
      40    H19     16.232813   18.006661   17.927828 H          1 MOL1         0.0794
      41    O10     15.421585   16.231464   18.656610 O.3        1 MOL1        -0.5486
      42    H20     15.655364   15.572041   19.350195 H          1 MOL1         0.3769
      43    C13     18.594802   24.163600   20.972547 C.3        1 MOL1         0.2972
      44    H21     18.945688   25.146381   20.632563 H          1 MOL1         0.0751
      45    O11     19.522439   23.588925   21.912801 O.3        1 MOL1        -0.3740
      46    C14     17.204989   24.311209   21.658561 C.3        1 MOL1         0.1003
      47    H22     16.557751   24.843432   20.949686 H          1 MOL1         0.0783
      48    O12     17.305540   25.076066   22.870103 O.3        1 MOL1        -0.5519
      49    H23     17.810201   24.515119   23.519242 H          1 MOL1         0.3769
      50    C15     16.542493   22.946361   21.971461 C.3        1 MOL1         0.1053
      51    H24     17.082609   22.494222   22.806691 H          1 MOL1         0.0783
      52    O13     15.175421   23.146554   22.345729 O.3        1 MOL1        -0.5519
      53    H25     15.192357   23.873150   23.007634 H          1 MOL1         0.3769
      54    C16     16.627456   21.969241   20.778320 C.3        1 MOL1         0.1018
      55    H26     15.937629   22.303473   19.991916 H          1 MOL1         0.0783
      56    C17     18.060986   21.904589   20.196580 C.3        1 MOL1         0.1043
      57    H27     18.735726   21.499595   20.960992 H          1 MOL1         0.0783
      58    O14     18.460589   23.251778   19.856882 O.3        1 MOL1        -0.3740
      59    C18     18.208846   21.005279   18.941920 C.3        1 MOL1         0.0138
      60    H28     18.430492   19.983109   19.273409 H          1 MOL1         0.0794
      61    H29     19.079192   21.347565   18.366506 H          1 MOL1         0.0794
      62    O15     17.041862   20.996037   18.110387 O.3        1 MOL1        -0.5486
      63    H30     16.341261   20.500901   18.595089 H          1 MOL1         0.3769
      64    C19     23.591565   22.915531   22.069001 C.3        1 MOL1         0.2972
      65    H31     24.687424   22.960407   22.111296 H          1 MOL1         0.0751
      66    O16     23.116461   21.554934   22.002754 O.3        1 MOL1        -0.3740
      67    C20     23.006871   23.603118   23.319833 C.3        1 MOL1         0.1003
      68    H32     23.330747   24.651684   23.305400 H          1 MOL1         0.0783
      69    O17     23.520216   22.966493   24.502077 O.3        1 MOL1        -0.5519
      70    H33     23.730577   22.031082   24.260696 H          1 MOL1         0.3769
      71    C21     21.460593   23.586282   23.282896 C.3        1 MOL1         0.1053
      72    H34     21.141110   22.546546   23.432855 H          1 MOL1         0.0783
      73    O18     20.944986   24.409597   24.335942 O.3        1 MOL1        -0.5519
      74    H35     20.013099   24.104967   24.492925 H          1 MOL1         0.3769
      75    C22     20.883162   24.086793   21.927053 C.3        1 MOL1         0.1018
      76    H36     20.893833   25.184206   21.941678 H          1 MOL1         0.0783
      77    C23     21.674873   23.567674   20.678420 C.3        1 MOL1         0.1043
      78    H37     21.371596   22.529007   20.497867 H          1 MOL1         0.0783
      79    O19     23.106035   23.613939   20.911880 O.3        1 MOL1        -0.3740
      80    C24     21.447732   24.368275   19.368675 C.3        1 MOL1         0.0138
      81    H38     20.492412   24.082261   18.917587 H          1 MOL1         0.0794
      82    H39     22.225877   24.079287   18.649172 H          1 MOL1         0.0794
      83    O20     21.482897   25.784557   19.583002 O.3        1 MOL1        -0.5486
      84    H40     21.421248   26.220396   18.705145 H          1 MOL1         0.3769
      85    C25     24.779394   17.768148   21.186253 C.3        1 MOL1         0.2972
      86    H41     25.509314   17.009228   20.877306 H          1 MOL1         0.0751
      87    O21     23.510981   17.173763   21.515653 O.3        1 MOL1        -0.3740
      88    C26     25.298455   18.495309   22.453220 C.3        1 MOL1         0.1003
      89    H42     26.288134   18.905626   22.214012 H          1 MOL1         0.0783
      90    O22     25.421791   17.567846   23.543539 O.3        1 MOL1        -0.5519
      91    H43     24.717475   16.885299   23.416635 H          1 MOL1         0.3769
      92    C27     24.378311   19.675096   22.848871 C.3        1 MOL1         0.1053
      93    H44     23.417767   19.268816   23.190685 H          1 MOL1         0.0783
      94    O23     24.995626   20.422192   23.901443 O.3        1 MOL1        -0.5519
      95    H45     25.296829   19.746770   24.549430 H          1 MOL1         0.3769
      96    C28     24.115698   20.586639   21.627743 C.3        1 MOL1         0.1018
      97    H46     25.061991   21.064400   21.340879 H          1 MOL1         0.0783
      98    C29     23.595539   19.766182   20.419411 C.3        1 MOL1         0.1043
      99    H47     22.636997   19.306977   20.695851 H          1 MOL1         0.0783
     100    O24     24.567028   18.729921   20.127991 O.3        1 MOL1        -0.3740
     101    C30     23.355570   20.595651   19.130975 C.3        1 MOL1         0.0138
     102    H48     22.341561   21.012646   19.169440 H          1 MOL1         0.0794
     103    H49     23.388212   19.918835   18.267066 H          1 MOL1         0.0794
     104    O25     24.303077   21.655831   18.956991 O.3        1 MOL1        -0.5486
     105    H50     24.052436   22.374068   19.583664 H          1 MOL1         0.3769
     106    C31     21.183577   13.831819   20.604276 C.3        1 MOL1         0.2972
     107    H51     20.798697   12.873233   20.232966 H          1 MOL1         0.0751
     108    O26     20.135413   14.656911   21.140275 O.3        1 MOL1        -0.3740
     109    C32     22.253220   13.624752   21.709539 C.3        1 MOL1         0.1003
     110    H52     23.081592   13.061789   21.260231 H          1 MOL1         0.0783
     111    O27     21.727271   12.878416   22.818392 O.3        1 MOL1        -0.5519
     112    H53     20.926344   13.360629   23.146919 H          1 MOL1         0.3769
     113    C33     22.807709   14.989348   22.189671 C.3        1 MOL1         0.1053
     114    H54     21.997473   15.527981   22.699424 H          1 MOL1         0.0783
     115    O28     23.895006   14.775918   23.096778 O.3        1 MOL1        -0.5519
     116    H55     23.577473   14.087663   23.722108 H          1 MOL1         0.3769
     117    C34     23.285145   15.850171   20.993843 C.3        1 MOL1         0.1018
     118    H56     24.204852   15.399005   20.599076 H          1 MOL1         0.0783
     119    C35     22.219515   15.923078   19.863416 C.3        1 MOL1         0.1043
     120    H57     21.359803   16.493084   20.238616 H          1 MOL1         0.0783
     121    O29     21.799954   14.575338   19.530190 O.3        1 MOL1        -0.3740
     122    C36     22.678497   16.623409   18.559549 C.3        1 MOL1         0.0138
     123    H58     22.503295   17.701118   18.664966 H          1 MOL1         0.0794
     124    H59     22.040160   16.277865   17.735513 H          1 MOL1         0.0794
     125    O30     24.055317   16.390121   18.244613 O.3        1 MOL1        -0.5486
     126    H60     24.567662   17.096631   18.699605 H          1 MOL1         0.3769
     127    C1      18.410291   22.084410   25.162866 C.2        1 MOL1         0.6173
     128    O1      18.063105   21.740265   26.276548 O.co2      1 MOL1        -0.6755
     129    O2      18.445527   23.248698   24.802952 O.co2      1 MOL1        -0.6755
     130    C2      18.764784   21.050509   24.151338 C.2        1 MOL1        -0.1504
     131    H1      19.080370   21.425357   23.185060 H          1 MOL1         0.0814
     132    C3      18.688097   19.717353   24.352727 C.2        1 MOL1        -0.1394
     133    H2      18.366031   19.311670   25.311167 H          1 MOL1         0.0817
     134    C4      18.991419   18.701297   23.271670 C.3        1 MOL1        -0.1849
     135    H3      18.586347   19.054289   22.314564 H          1 MOL1         0.0736
     136    H4      18.466570   17.766727   23.499976 H          1 MOL1         0.0736
     137    C5      20.501378   18.425566   23.105703 C.3        1 MOL1        -0.1866
     138    H5      20.655115   17.785372   22.227074 H          1 MOL1         0.0738
     139    H6      21.028849   19.368500   22.907540 H          1 MOL1         0.0738
     140    C6      21.110707   17.733334   24.342667 C.3        1 MOL1        -0.2879
     141    H7      20.597222   16.786524   24.553768 H          1 MOL1         0.0750
     142    H8      22.173101   17.512249   24.181310 H          1 MOL1         0.0750
     143    H9      21.029885   18.372848   25.230937 H          1 MOL1         0.0750
@<TRIPOS>BOND
    1     1     2    1
    2     1     3    1
    3     1     4    1
    4     4     5    1
    5     4     6    1
    6     6     7    1
    7     4     8    1
    8     8     9    1
    9     8    10    1
   10    10    11    1
   11     8    12    1
   12    12    13    1
   13    12    14    1
   14    14    15    1
   15     1    16    1
   16    14    16    1
   17    14    17    1
   18    17    18    1
   19    17    19    1
   20    17    20    1
   21    20    21    1
   22    22    23    1
   23    22    24    1
   24    22    25    1
   25    25    26    1
   26    25    27    1
   27    27    28    1
   28    25    29    1
   29    29    30    1
   30    29    31    1
   31    31    32    1
   32     3    33    1
   33    29    33    1
   34    33    34    1
   35    33    35    1
   36    35    36    1
   37    22    37    1
   38    35    37    1
   39    35    38    1
   40    38    39    1
   41    38    40    1
   42    38    41    1
   43    41    42    1
   44    43    44    1
   45    43    45    1
   46    43    46    1
   47    46    47    1
   48    46    48    1
   49    48    49    1
   50    46    50    1
   51    50    51    1
   52    50    52    1
   53    52    53    1
   54    24    54    1
   55    50    54    1
   56    54    55    1
   57    54    56    1
   58    56    57    1
   59    43    58    1
   60    56    58    1
   61    56    59    1
   62    59    60    1
   63    59    61    1
   64    59    62    1
   65    62    63    1
   66    64    65    1
   67    64    66    1
   68    64    67    1
   69    67    68    1
   70    67    69    1
   71    69    70    1
   72    67    71    1
   73    71    72    1
   74    71    73    1
   75    73    74    1
   76    45    75    1
   77    71    75    1
   78    75    76    1
   79    75    77    1
   80    77    78    1
   81    64    79    1
   82    77    79    1
   83    77    80    1
   84    80    81    1
   85    80    82    1
   86    80    83    1
   87    83    84    1
   88    85    86    1
   89    85    87    1
   90    85    88    1
   91    88    89    1
   92    88    90    1
   93    90    91    1
   94    88    92    1
   95    92    93    1
   96    92    94    1
   97    94    95    1
   98    66    96    1
   99    92    96    1
  100    96    97    1
  101    96    98    1
  102    98    99    1
  103    85   100    1
  104    98   100    1
  105    98   101    1
  106   101   102    1
  107   101   103    1
  108   101   104    1
  109   104   105    1
  110   106   107    1
  111    12   108    1
  112   106   108    1
  113   106   109    1
  114   109   110    1
  115   109   111    1
  116   111   112    1
  117   109   113    1
  118   113   114    1
  119   113   115    1
  120   115   116    1
  121    87   117    1
  122   113   117    1
  123   117   118    1
  124   117   119    1
  125   119   120    1
  126   106   121    1
  127   119   121    1
  128   119   122    1
  129   122   123    1
  130   122   124    1
  131   122   125    1
  132   125   126    1
  133   127   128    1
  134   127   129    2
  135   127   130    1
  136   130   131    1
  137   130   132    2
  138   132   133    1
  139   132   134    1
  140   134   135    1
  141   134   136    1
  142   134   137    1
  143   137   138    1
  144   137   139    1
  145   137   140    1
  146   140   141    1
  147   140   142    1
  148   140   143    1
@<TRIPOS>SUBSTRUCTURE
       1 MOL1            1 RESIDUE      1      MOL     
       2 MOL1          143 RESIDUE      1      MOL     
@<SCITEGIC>MOL_PROPERTY
feprocess Rank
SciTegic.value.IntegerValue
107

@<SCITEGIC>MOL_PROPERTY
Conf_Id
SciTegic.value.IntegerValue
571

@<SCITEGIC>MOL_PROPERTY
Probability
SciTegic.value.DoubleValue
0.00

@<SCITEGIC>MOL_PROPERTY
G
SciTegic.value.DoubleValue
501.795

@<SCITEGIC>MOL_PROPERTY
E
SciTegic.value.DoubleValue
319.867

@<SCITEGIC>MOL_PROPERTY
-TS
SciTegic.value.DoubleValue
181.928

@<SCITEGIC>MOL_PROPERTY
U+W
SciTegic.value.DoubleValue
193.779

@<SCITEGIC>MOL_PROPERTY
U
SciTegic.value.DoubleValue
276.617

@<SCITEGIC>MOL_PROPERTY
W
SciTegic.value.DoubleValue
-82.838

@<SCITEGIC>MOL_PROPERTY
W(PB)
SciTegic.value.DoubleValue
-88.797

@<SCITEGIC>MOL_PROPERTY
W(SA)
SciTegic.value.DoubleValue
5.959

@<SCITEGIC>MOL_PROPERTY
Valence
SciTegic.value.DoubleValue
151.503

@<SCITEGIC>MOL_PROPERTY
Coulomb
SciTegic.value.DoubleValue
148.726

@<SCITEGIC>MOL_PROPERTY
VdW
SciTegic.value.DoubleValue
-23.612

@<SCITEGIC>MOL_PROPERTY
VdW6
SciTegic.value.DoubleValue
-177.456

@<SCITEGIC>MOL_PROPERTY
VdW12
SciTegic.value.DoubleValue
153.844

@<SCITEGIC>MOL_PROPERTY
Bond
SciTegic.value.DoubleValue
4.891

@<SCITEGIC>MOL_PROPERTY
Angle
SciTegic.value.DoubleValue
14.469

@<SCITEGIC>MOL_PROPERTY
Pdih
SciTegic.value.DoubleValue
132.134

@<SCITEGIC>MOL_PROPERTY
Idih
SciTegic.value.DoubleValue
0.009

@<SCITEGIC>MOL_PROPERTY
Tether
SciTegic.value.DoubleValue
0.000

@<TRIPOS>MOLECULE
CD_guest-s19_fast_vm2_rndm.mol2 : feprocess host+ligand conformer 108
         143         148           2
SMALL
USER_CHARGES
 
@<TRIPOS>ATOM
       1    C1      16.290113   15.323536   20.798512 C.3        1 MOL1         0.2972
       2    H1      15.267742   15.220172   20.413129 H          1 MOL1         0.0751
       3    O1      16.515124   16.632095   21.364820 O.3        1 MOL1        -0.3740
       4    C2      16.533379   14.267417   21.902948 C.3        1 MOL1         0.1003
       5    H2      16.384995   13.274894   21.458900 H          1 MOL1         0.0783
       6    O2      15.580828   14.460432   22.962075 O.3        1 MOL1        -0.5519
       7    H3      15.389634   15.429138   23.004118 H          1 MOL1         0.3769
       8    C3      17.992931   14.345498   22.417042 C.3        1 MOL1         0.1053
       9    H4      18.114040   15.307426   22.924669 H          1 MOL1         0.0783
      10    O3      18.267153   13.285968   23.339390 O.3        1 MOL1        -0.5519
      11    H5      18.822341   13.707512   24.046485 H          1 MOL1         0.3769
      12    C4      19.010309   14.296561   21.247512 C.3        1 MOL1         0.1018
      13    H6      19.020177   13.277884   20.838535 H          1 MOL1         0.0783
      14    C5      18.639777   15.309195   20.123752 C.3        1 MOL1         0.1043
      15    H7      18.772568   16.320282   20.528756 H          1 MOL1         0.0783
      16    O4      17.252980   15.120962   19.744539 O.3        1 MOL1        -0.3740
      17    C6      19.489534   15.221161   18.830102 C.3        1 MOL1         0.0138
      18    H8      20.357743   15.881314   18.933221 H          1 MOL1         0.0794
      19    H9      18.895566   15.617594   17.995661 H          1 MOL1         0.0794
      20    O5      19.924374   13.891375   18.527938 O.3        1 MOL1        -0.5486
      21    H10     20.703412   13.711016   19.103749 H          1 MOL1         0.3769
      22    C7      14.781297   20.476722   21.160120 C.3        1 MOL1         0.2972
      23    H11     14.100520   21.287120   20.869567 H          1 MOL1         0.0751
      24    O6      15.843337   20.966749   21.998380 O.3        1 MOL1        -0.3740
      25    C8      14.007076   19.399116   21.965781 C.3        1 MOL1         0.1003
      26    H12     13.159756   19.072510   21.348947 H          1 MOL1         0.0783
      27    O7      13.516049   19.956834   23.193983 O.3        1 MOL1        -0.5519
      28    H13     14.268238   20.462841   23.580254 H          1 MOL1         0.3769
      29    C9      14.888566   18.160296   22.264005 C.3        1 MOL1         0.1053
      30    H14     15.671815   18.455292   22.975659 H          1 MOL1         0.0783
      31    O8      14.078180   17.126346   22.832445 O.3        1 MOL1        -0.5519
      32    H15     13.544216   17.569546   23.528538 H          1 MOL1         0.3769
      33    C10     15.573816   17.649745   20.975541 C.3        1 MOL1         0.1018
      34    H16     14.801470   17.258623   20.300069 H          1 MOL1         0.0783
      35    C11     16.329186   18.801300   20.263406 C.3        1 MOL1         0.1043
      36    H17     17.113193   19.175777   20.934153 H          1 MOL1         0.0783
      37    O9      15.374037   19.855020   19.996384 O.3        1 MOL1        -0.3740
      38    C12     17.012193   18.411493   18.927748 C.3        1 MOL1         0.0138
      39    H18     18.002531   17.995789   19.149773 H          1 MOL1         0.0794
      40    H19     17.174971   19.324846   18.340372 H          1 MOL1         0.0794
      41    O10     16.256944   17.464507   18.164153 O.3        1 MOL1        -0.5486
      42    H20     16.431482   16.577797   18.556475 H          1 MOL1         0.3769
      43    C13     18.520389   24.102859   21.791068 C.3        1 MOL1         0.2972
      44    H21     19.056654   25.060628   21.768168 H          1 MOL1         0.0751
      45    O11     19.408935   22.993039   21.573034 O.3        1 MOL1        -0.3740
      46    C14     17.826858   23.926435   23.158337 C.3        1 MOL1         0.1003
      47    H22     17.100744   24.742262   23.269493 H          1 MOL1         0.0783
      48    O12     18.790760   23.997736   24.221601 O.3        1 MOL1        -0.5519
      49    H23     19.680971   23.895271   23.805167 H          1 MOL1         0.3769
      50    C15     17.057965   22.588594   23.211132 C.3        1 MOL1         0.1053
      51    H24     17.799671   21.778932   23.205395 H          1 MOL1         0.0783
      52    O13     16.300698   22.537226   24.425096 O.3        1 MOL1        -0.5519
      53    H25     16.935857   22.793690   25.129666 H          1 MOL1         0.3769
      54    C16     16.120178   22.387411   21.989697 C.3        1 MOL1         0.1018
      55    H26     15.203524   22.965889   22.161937 H          1 MOL1         0.0783
      56    C17     16.775240   22.814861   20.631537 C.3        1 MOL1         0.1043
      57    H27     17.469489   22.019898   20.334856 H          1 MOL1         0.0783
      58    O14     17.507576   24.060909   20.771642 O.3        1 MOL1        -0.3740
      59    C18     15.785240   23.044336   19.459084 C.3        1 MOL1         0.0138
      60    H28     15.478796   22.080758   19.038274 H          1 MOL1         0.0794
      61    H29     16.316127   23.575497   18.657378 H          1 MOL1         0.0794
      62    O15     14.631483   23.792619   19.861149 O.3        1 MOL1        -0.5486
      63    H30     14.102880   23.981471   19.055189 H          1 MOL1         0.3769
      64    C19     23.326156   22.327485   20.262200 C.3        1 MOL1         0.2972
      65    H31     24.294173   22.404926   19.750661 H          1 MOL1         0.0751
      66    O16     23.177265   21.055249   20.921400 O.3        1 MOL1        -0.3740
      67    C20     23.148882   23.463023   21.309058 C.3        1 MOL1         0.1003
      68    H32     23.191570   24.413986   20.762319 H          1 MOL1         0.0783
      69    O17     24.191594   23.451406   22.295482 O.3        1 MOL1        -0.5519
      70    H33     24.159309   22.568817   22.744684 H          1 MOL1         0.3769
      71    C21     21.758515   23.367425   21.985719 C.3        1 MOL1         0.1053
      72    H34     21.718782   22.435442   22.566985 H          1 MOL1         0.0783
      73    O18     21.564404   24.490217   22.852568 O.3        1 MOL1        -0.5519
      74    H35     22.414136   24.589736   23.337393 H          1 MOL1         0.3769
      75    C22     20.642823   23.322595   20.912863 C.3        1 MOL1         0.1018
      76    H36     20.591543   24.301391   20.417526 H          1 MOL1         0.0783
      77    C23     20.916643   22.236077   19.839842 C.3        1 MOL1         0.1043
      78    H37     20.862996   21.252186   20.321572 H          1 MOL1         0.0783
      79    O19     22.248128   22.442033   19.304454 O.3        1 MOL1        -0.3740
      80    C24     19.900349   22.217433   18.668298 C.3        1 MOL1         0.0138
      81    H38     19.078616   21.541370   18.935343 H          1 MOL1         0.0794
      82    H39     20.390481   21.784304   17.786213 H          1 MOL1         0.0794
      83    O20     19.373879   23.513068   18.352791 O.3        1 MOL1        -0.5486
      84    H40     18.813522   23.795384   19.112448 H          1 MOL1         0.3769
      85    C25     25.069774   17.598984   22.044103 C.3        1 MOL1         0.2972
      86    H41     25.742777   16.778861   22.325693 H          1 MOL1         0.0751
      87    O21     23.707425   17.154969   21.909581 O.3        1 MOL1        -0.3740
      88    C26     25.103192   18.706875   23.121464 C.3        1 MOL1         0.1003
      89    H42     26.120203   19.119404   23.146152 H          1 MOL1         0.0783
      90    O22     24.775861   18.170218   24.412982 O.3        1 MOL1        -0.5519
      91    H43     24.222979   17.364388   24.259632 H          1 MOL1         0.3769
      92    C27     24.130098   19.846200   22.746283 C.3        1 MOL1         0.1053
      93    H44     23.110350   19.444013   22.790069 H          1 MOL1         0.0783
      94    O23     24.268533   20.912374   23.690511 O.3        1 MOL1        -0.5519
      95    H45     24.264650   20.468940   24.568433 H          1 MOL1         0.3769
      96    C28     24.380571   20.363874   21.306607 C.3        1 MOL1         0.1018
      97    H46     25.255392   21.027482   21.317047 H          1 MOL1         0.0783
      98    C29     24.583669   19.217630   20.271777 C.3        1 MOL1         0.1043
      99    H47     23.599018   18.773893   20.078687 H          1 MOL1         0.0783
     100    O24     25.468589   18.188819   20.789595 O.3        1 MOL1        -0.3740
     101    C30     25.137307   19.700339   18.910075 C.3        1 MOL1         0.0138
     102    H48     24.350730   20.268617   18.395436 H          1 MOL1         0.0794
     103    H49     25.361691   18.821056   18.291291 H          1 MOL1         0.0794
     104    O25     26.306226   20.515123   19.060962 O.3        1 MOL1        -0.5486
     105    H50     26.649534   20.713610   18.162444 H          1 MOL1         0.3769
     106    C31     21.372880   13.734492   21.623778 C.3        1 MOL1         0.2972
     107    H51     21.003224   12.709160   21.496260 H          1 MOL1         0.0751
     108    O26     20.286649   14.667044   21.809665 O.3        1 MOL1        -0.3740
     109    C32     22.310484   13.800817   22.857020 C.3        1 MOL1         0.1003
     110    H52     23.180784   13.171464   22.631063 H          1 MOL1         0.0783
     111    O27     21.669320   13.275059   24.029221 O.3        1 MOL1        -0.5519
     112    H53     21.044529   13.963944   24.378058 H          1 MOL1         0.3769
     113    C33     22.818055   15.250348   23.055421 C.3        1 MOL1         0.1053
     114    H54     21.953960   15.903300   23.230850 H          1 MOL1         0.0783
     115    O28     23.713730   15.334084   24.169735 O.3        1 MOL1        -0.5519
     116    H55     23.132815   15.233868   24.970097 H          1 MOL1         0.3769
     117    C34     23.511478   15.740041   21.763350 C.3        1 MOL1         0.1018
     118    H56     24.456951   15.196723   21.635764 H          1 MOL1         0.0783
     119    C35     22.613518   15.528040   20.513065 C.3        1 MOL1         0.1043
     120    H57     21.751961   16.199510   20.610776 H          1 MOL1         0.0783
     121    O29     22.140533   14.155131   20.471319 O.3        1 MOL1        -0.3740
     122    C36     23.295260   15.867813   19.161091 C.3        1 MOL1         0.0138
     123    H58     23.095435   16.920834   18.926701 H          1 MOL1         0.0794
     124    H59     22.821435   15.272430   18.369165 H          1 MOL1         0.0794
     125    O30     24.709706   15.641360   19.164764 O.3        1 MOL1        -0.5486
     126    H60     25.118155   16.373227   19.682930 H          1 MOL1         0.3769
     127    C1      20.465978   15.922137   25.431696 C.2        1 MOL1         0.6173
     128    O1      19.697637   15.040666   25.090017 O.co2      1 MOL1        -0.6755
     129    O2      21.525961   15.681577   25.977234 O.co2      1 MOL1        -0.6755
     130    C2      20.225670   17.325449   24.997805 C.2        1 MOL1        -0.1504
     131    H1      21.020162   18.030716   25.228594 H          1 MOL1         0.0814
     132    C3      19.129293   17.731628   24.316842 C.2        1 MOL1        -0.1394
     133    H2      18.326766   17.035111   24.090479 H          1 MOL1         0.0817
     134    C4      18.924863   19.137543   23.789779 C.3        1 MOL1        -0.1849
     135    H3      18.824966   19.835474   24.631450 H          1 MOL1         0.0736
     136    H4      17.979580   19.187736   23.234877 H          1 MOL1         0.0736
     137    C5      20.077508   19.607279   22.872486 C.3        1 MOL1        -0.1866
     138    H5      19.864831   20.623610   22.523073 H          1 MOL1         0.0738
     139    H6      21.002453   19.671583   23.458290 H          1 MOL1         0.0738
     140    C6      20.297057   18.684027   21.653831 C.3        1 MOL1        -0.2879
     141    H7      19.405365   18.657643   21.018865 H          1 MOL1         0.0750
     142    H8      21.141495   19.035178   21.048437 H          1 MOL1         0.0750
     143    H9      20.521392   17.659400   21.975337 H          1 MOL1         0.0750
@<TRIPOS>BOND
    1     1     2    1
    2     1     3    1
    3     1     4    1
    4     4     5    1
    5     4     6    1
    6     6     7    1
    7     4     8    1
    8     8     9    1
    9     8    10    1
   10    10    11    1
   11     8    12    1
   12    12    13    1
   13    12    14    1
   14    14    15    1
   15     1    16    1
   16    14    16    1
   17    14    17    1
   18    17    18    1
   19    17    19    1
   20    17    20    1
   21    20    21    1
   22    22    23    1
   23    22    24    1
   24    22    25    1
   25    25    26    1
   26    25    27    1
   27    27    28    1
   28    25    29    1
   29    29    30    1
   30    29    31    1
   31    31    32    1
   32     3    33    1
   33    29    33    1
   34    33    34    1
   35    33    35    1
   36    35    36    1
   37    22    37    1
   38    35    37    1
   39    35    38    1
   40    38    39    1
   41    38    40    1
   42    38    41    1
   43    41    42    1
   44    43    44    1
   45    43    45    1
   46    43    46    1
   47    46    47    1
   48    46    48    1
   49    48    49    1
   50    46    50    1
   51    50    51    1
   52    50    52    1
   53    52    53    1
   54    24    54    1
   55    50    54    1
   56    54    55    1
   57    54    56    1
   58    56    57    1
   59    43    58    1
   60    56    58    1
   61    56    59    1
   62    59    60    1
   63    59    61    1
   64    59    62    1
   65    62    63    1
   66    64    65    1
   67    64    66    1
   68    64    67    1
   69    67    68    1
   70    67    69    1
   71    69    70    1
   72    67    71    1
   73    71    72    1
   74    71    73    1
   75    73    74    1
   76    45    75    1
   77    71    75    1
   78    75    76    1
   79    75    77    1
   80    77    78    1
   81    64    79    1
   82    77    79    1
   83    77    80    1
   84    80    81    1
   85    80    82    1
   86    80    83    1
   87    83    84    1
   88    85    86    1
   89    85    87    1
   90    85    88    1
   91    88    89    1
   92    88    90    1
   93    90    91    1
   94    88    92    1
   95    92    93    1
   96    92    94    1
   97    94    95    1
   98    66    96    1
   99    92    96    1
  100    96    97    1
  101    96    98    1
  102    98    99    1
  103    85   100    1
  104    98   100    1
  105    98   101    1
  106   101   102    1
  107   101   103    1
  108   101   104    1
  109   104   105    1
  110   106   107    1
  111    12   108    1
  112   106   108    1
  113   106   109    1
  114   109   110    1
  115   109   111    1
  116   111   112    1
  117   109   113    1
  118   113   114    1
  119   113   115    1
  120   115   116    1
  121    87   117    1
  122   113   117    1
  123   117   118    1
  124   117   119    1
  125   119   120    1
  126   106   121    1
  127   119   121    1
  128   119   122    1
  129   122   123    1
  130   122   124    1
  131   122   125    1
  132   125   126    1
  133   127   128    1
  134   127   129    2
  135   127   130    1
  136   130   131    1
  137   130   132    2
  138   132   133    1
  139   132   134    1
  140   134   135    1
  141   134   136    1
  142   134   137    1
  143   137   138    1
  144   137   139    1
  145   137   140    1
  146   140   141    1
  147   140   142    1
  148   140   143    1
@<TRIPOS>SUBSTRUCTURE
       1 MOL1            1 RESIDUE      1      MOL     
       2 MOL1          143 RESIDUE      1      MOL     
@<SCITEGIC>MOL_PROPERTY
feprocess Rank
SciTegic.value.IntegerValue
108

@<SCITEGIC>MOL_PROPERTY
Conf_Id
SciTegic.value.IntegerValue
290

@<SCITEGIC>MOL_PROPERTY
Probability
SciTegic.value.DoubleValue
0.00

@<SCITEGIC>MOL_PROPERTY
G
SciTegic.value.DoubleValue
501.797

@<SCITEGIC>MOL_PROPERTY
E
SciTegic.value.DoubleValue
318.145

@<SCITEGIC>MOL_PROPERTY
-TS
SciTegic.value.DoubleValue
183.652

@<SCITEGIC>MOL_PROPERTY
U+W
SciTegic.value.DoubleValue
192.057

@<SCITEGIC>MOL_PROPERTY
U
SciTegic.value.DoubleValue
267.305

@<SCITEGIC>MOL_PROPERTY
W
SciTegic.value.DoubleValue
-75.248

@<SCITEGIC>MOL_PROPERTY
W(PB)
SciTegic.value.DoubleValue
-81.196

@<SCITEGIC>MOL_PROPERTY
W(SA)
SciTegic.value.DoubleValue
5.948

@<SCITEGIC>MOL_PROPERTY
Valence
SciTegic.value.DoubleValue
152.024

@<SCITEGIC>MOL_PROPERTY
Coulomb
SciTegic.value.DoubleValue
139.090

@<SCITEGIC>MOL_PROPERTY
VdW
SciTegic.value.DoubleValue
-23.809

@<SCITEGIC>MOL_PROPERTY
VdW6
SciTegic.value.DoubleValue
-182.711

@<SCITEGIC>MOL_PROPERTY
VdW12
SciTegic.value.DoubleValue
158.902

@<SCITEGIC>MOL_PROPERTY
Bond
SciTegic.value.DoubleValue
5.096

@<SCITEGIC>MOL_PROPERTY
Angle
SciTegic.value.DoubleValue
15.188

@<SCITEGIC>MOL_PROPERTY
Pdih
SciTegic.value.DoubleValue
131.673

@<SCITEGIC>MOL_PROPERTY
Idih
SciTegic.value.DoubleValue
0.067

@<SCITEGIC>MOL_PROPERTY
Tether
SciTegic.value.DoubleValue
0.000

@<TRIPOS>MOLECULE
CD_guest-s19_fast_vm2_rndm.mol2 : feprocess host+ligand conformer 109
         143         148           2
SMALL
USER_CHARGES
 
@<TRIPOS>ATOM
       1    C1      16.221723   15.221091   21.084971 C.3        1 MOL1         0.2972
       2    H1      15.188112   15.005696   20.785310 H          1 MOL1         0.0751
       3    O1      16.393590   16.609780   21.417618 O.3        1 MOL1        -0.3740
       4    C2      16.581115   14.395046   22.345090 C.3        1 MOL1         0.1003
       5    H2      16.444636   13.334013   22.099007 H          1 MOL1         0.0783
       6    O2      15.711798   14.748978   23.432227 O.3        1 MOL1        -0.5519
       7    H3      15.486771   15.702552   23.308767 H          1 MOL1         0.3769
       8    C3      18.059681   14.609843   22.744128 C.3        1 MOL1         0.1053
       9    H4      18.178312   15.650644   23.071845 H          1 MOL1         0.0783
      10    O3      18.405280   13.720535   23.811952 O.3        1 MOL1        -0.5519
      11    H5      17.671359   13.804515   24.460274 H          1 MOL1         0.3769
      12    C4      18.992966   14.376888   21.533685 C.3        1 MOL1         0.1018
      13    H6      18.980458   13.308048   21.282719 H          1 MOL1         0.0783
      14    C5      18.538451   15.195744   20.293843 C.3        1 MOL1         0.1043
      15    H7      18.647539   16.263715   20.528365 H          1 MOL1         0.0783
      16    O4      17.144942   14.890654   20.024823 O.3        1 MOL1        -0.3740
      17    C6      19.345586   14.926831   18.996881 C.3        1 MOL1         0.0138
      18    H8      20.202581   15.610200   18.969413 H          1 MOL1         0.0794
      19    H9      18.716871   15.184662   18.134505 H          1 MOL1         0.0794
      20    O5      19.800378   13.572797   18.883755 O.3        1 MOL1        -0.5486
      21    H10     20.579081   13.483229   19.481485 H          1 MOL1         0.3769
      22    C7      14.930605   20.400519   20.513145 C.3        1 MOL1         0.2972
      23    H11     14.370340   21.256784   20.116172 H          1 MOL1         0.0751
      24    O6      16.091433   20.813024   21.254341 O.3        1 MOL1        -0.3740
      25    C8      14.053711   19.561368   21.475438 C.3        1 MOL1         0.1003
      26    H12     13.178579   19.214489   20.910891 H          1 MOL1         0.0783
      27    O7      13.620243   20.357945   22.590877 O.3        1 MOL1        -0.5519
      28    H13     14.419918   20.824968   22.942973 H          1 MOL1         0.3769
      29    C9      14.830325   18.318772   21.977476 C.3        1 MOL1         0.1053
      30    H14     15.639111   18.669017   22.632793 H          1 MOL1         0.0783
      31    O8      13.947219   17.467904   22.716631 O.3        1 MOL1        -0.5519
      32    H15     13.467086   18.066173   23.330748 H          1 MOL1         0.3769
      33    C10     15.469291   17.528389   20.806957 C.3        1 MOL1         0.1018
      34    H16     14.668647   17.010332   20.263068 H          1 MOL1         0.0783
      35    C11     16.243923   18.456964   19.827528 C.3        1 MOL1         0.1043
      36    H17     17.120011   18.859847   20.351434 H          1 MOL1         0.0783
      37    O9      15.367275   19.541979   19.439596 O.3        1 MOL1        -0.3740
      38    C12     16.768468   17.784949   18.533280 C.3        1 MOL1         0.0138
      39    H18     17.771728   17.387915   18.727781 H          1 MOL1         0.0794
      40    H19     16.888865   18.560336   17.764843 H          1 MOL1         0.0794
      41    O10     15.916189   16.738722   18.052324 O.3        1 MOL1        -0.5486
      42    H20     16.146464   15.932646   18.569680 H          1 MOL1         0.3769
      43    C13     18.449595   24.122502   21.966822 C.3        1 MOL1         0.2972
      44    H21     18.855136   25.129490   22.128533 H          1 MOL1         0.0751
      45    O11     19.485027   23.123535   21.981728 O.3        1 MOL1        -0.3740
      46    C14     17.447213   23.776890   23.093653 C.3        1 MOL1         0.1003
      47    H22     16.633519   24.512692   23.054154 H          1 MOL1         0.0783
      48    O12     18.095084   23.848868   24.373916 O.3        1 MOL1        -0.5519
      49    H23     19.050655   23.647022   24.220132 H          1 MOL1         0.3769
      50    C15     16.837910   22.373551   22.872314 C.3        1 MOL1         0.1053
      51    H24     17.634809   21.628619   23.006956 H          1 MOL1         0.0783
      52    O13     15.794366   22.145258   23.826843 O.3        1 MOL1        -0.5519
      53    H25     16.182099   22.401414   24.692884 H          1 MOL1         0.3769
      54    C16     16.273554   22.224530   21.439820 C.3        1 MOL1         0.1018
      55    H26     15.325190   22.774698   21.378116 H          1 MOL1         0.0783
      56    C17     17.262027   22.725732   20.348863 C.3        1 MOL1         0.1043
      57    H27     18.096187   22.014330   20.304441 H          1 MOL1         0.0783
      58    O14     17.767048   24.040824   20.699092 O.3        1 MOL1        -0.3740
      59    C18     16.654642   22.800950   18.928135 C.3        1 MOL1         0.0138
      60    H28     16.530646   21.777957   18.548060 H          1 MOL1         0.0794
      61    H29     17.372863   23.304086   18.267073 H          1 MOL1         0.0794
      62    O15     15.396550   23.487914   18.913579 O.3        1 MOL1        -0.5486
      63    H30     15.106501   23.556698   17.978038 H          1 MOL1         0.3769
      64    C19     23.588788   22.706910   21.407512 C.3        1 MOL1         0.2972
      65    H31     24.651403   22.893389   21.205647 H          1 MOL1         0.0751
      66    O16     23.326305   21.309489   21.627607 O.3        1 MOL1        -0.3740
      67    C20     23.159048   23.465727   22.686549 C.3        1 MOL1         0.1003
      68    H32     23.331814   24.535956   22.513873 H          1 MOL1         0.0783
      69    O17     23.941156   23.031800   23.810815 O.3        1 MOL1        -0.5519
      70    H33     24.225565   22.104480   23.617899 H          1 MOL1         0.3769
      71    C21     21.651728   23.259806   22.962162 C.3        1 MOL1         0.1053
      72    H34     21.488199   22.202342   23.212659 H          1 MOL1         0.0783
      73    O18     21.244893   24.086268   24.058348 O.3        1 MOL1        -0.5519
      74    H35     21.933990   23.952173   24.746628 H          1 MOL1         0.3769
      75    C22     20.814115   23.595038   21.705634 C.3        1 MOL1         0.1018
      76    H36     20.845167   24.680787   21.545395 H          1 MOL1         0.0783
      77    C23     21.350300   22.872618   20.437031 C.3        1 MOL1         0.1043
      78    H37     21.199690   21.794547   20.569610 H          1 MOL1         0.0783
      79    O19     22.768934   23.147672   20.302849 O.3        1 MOL1        -0.3740
      80    C24     20.649852   23.263618   19.110104 C.3        1 MOL1         0.0138
      81    H38     19.782139   22.608392   18.966450 H          1 MOL1         0.0794
      82    H39     21.336751   23.058322   18.278398 H          1 MOL1         0.0794
      83    O20     20.229615   24.632429   19.074973 O.3        1 MOL1        -0.5486
      84    H40     19.380031   24.679356   19.572265 H          1 MOL1         0.3769
      85    C25     24.914307   17.544678   20.818601 C.3        1 MOL1         0.2972
      86    H41     25.520871   16.705071   20.455364 H          1 MOL1         0.0751
      87    O21     23.718475   17.098850   21.478935 O.3        1 MOL1        -0.3740
      88    C26     25.698972   18.392710   21.851310 C.3        1 MOL1         0.1003
      89    H42     26.603087   18.769074   21.355513 H          1 MOL1         0.0783
      90    O22     26.071864   17.593080   22.986313 O.3        1 MOL1        -0.5519
      91    H43     25.263635   17.095105   23.269272 H          1 MOL1         0.3769
      92    C27     24.854704   19.608158   22.309639 C.3        1 MOL1         0.1053
      93    H44     23.999476   19.233083   22.889117 H          1 MOL1         0.0783
      94    O23     25.653476   20.468137   23.129945 O.3        1 MOL1        -0.5519
      95    H45     26.110786   19.868894   23.760885 H          1 MOL1         0.3769
      96    C28     24.301815   20.397147   21.097685 C.3        1 MOL1         0.1018
      97    H46     25.137486   20.918284   20.612453 H          1 MOL1         0.0783
      98    C29     23.607920   19.468885   20.062044 C.3        1 MOL1         0.1043
      99    H47     22.707341   19.042575   20.520645 H          1 MOL1         0.0783
     100    O24     24.528089   18.403104   19.722411 O.3        1 MOL1        -0.3740
     101    C30     23.152758   20.162910   18.752320 C.3        1 MOL1         0.0138
     102    H48     22.136833   20.550717   18.896986 H          1 MOL1         0.0794
     103    H49     23.085711   19.403454   17.961942 H          1 MOL1         0.0794
     104    O25     24.020153   21.227973   18.344632 O.3        1 MOL1        -0.5486
     105    H50     23.777064   22.013557   18.887036 H          1 MOL1         0.3769
     106    C31     21.315178   13.804928   21.985615 C.3        1 MOL1         0.2972
     107    H51     20.879748   12.804591   22.106114 H          1 MOL1         0.0751
     108    O26     20.298856   14.823093   21.937017 O.3        1 MOL1        -0.3740
     109    C32     22.245400   14.114390   23.182114 C.3        1 MOL1         0.1003
     110    H52     23.047030   13.364462   23.184906 H          1 MOL1         0.0783
     111    O27     21.511436   14.035188   24.414392 O.3        1 MOL1        -0.5519
     112    H53     20.568445   14.233807   24.194705 H          1 MOL1         0.3769
     113    C33     22.891584   15.509017   23.025260 C.3        1 MOL1         0.1053
     114    H54     22.098596   16.260783   23.130498 H          1 MOL1         0.0783
     115    O28     23.876696   15.703841   24.046609 O.3        1 MOL1        -0.5519
     116    H55     23.431476   15.438265   24.881652 H          1 MOL1         0.3769
     117    C34     23.544780   15.682726   21.632717 C.3        1 MOL1         0.1018
     118    H56     24.502105   15.144951   21.625021 H          1 MOL1         0.0783
     119    C35     22.637021   15.194801   20.468291 C.3        1 MOL1         0.1043
     120    H57     21.819376   15.919590   20.362746 H          1 MOL1         0.0783
     121    O29     22.087563   13.886012   20.770815 O.3        1 MOL1        -0.3740
     122    C36     23.352782   15.114145   19.098845 C.3        1 MOL1         0.0138
     123    H58     23.522355   16.135315   18.732401 H          1 MOL1         0.0794
     124    H59     22.681890   14.622277   18.381771 H          1 MOL1         0.0794
     125    O30     24.598231   14.409579   19.180575 O.3        1 MOL1        -0.5486
     126    H60     24.958369   14.335395   18.270071 H          1 MOL1         0.3769
     127    C1      19.818629   19.207751   19.767447 C.2        1 MOL1         0.6173
     128    O1      19.303579   20.078269   19.092304 O.co2      1 MOL1        -0.6755
     129    O2      20.265606   18.173111   19.306334 O.co2      1 MOL1        -0.6755
     130    C2      19.916127   19.456301   21.230082 C.2        1 MOL1        -0.1504
     131    H1      19.487622   20.389835   21.584482 H          1 MOL1         0.0814
     132    C3      20.499644   18.600815   22.097707 C.2        1 MOL1        -0.1394
     133    H2      20.925004   17.662462   21.748005 H          1 MOL1         0.0817
     134    C4      20.615579   18.859310   23.584002 C.3        1 MOL1        -0.1849
     135    H3      20.430522   19.918736   23.806457 H          1 MOL1         0.0736
     136    H4      21.644628   18.652549   23.905960 H          1 MOL1         0.0736
     137    C5      19.644134   17.980407   24.399999 C.3        1 MOL1        -0.1866
     138    H5      19.836110   16.921281   24.181703 H          1 MOL1         0.0738
     139    H6      19.842731   18.121291   25.470938 H          1 MOL1         0.0738
     140    C6      18.165162   18.315972   24.110850 C.3        1 MOL1        -0.2879
     141    H7      17.928830   18.158322   23.051514 H          1 MOL1         0.0750
     142    H8      17.498236   17.678158   24.704646 H          1 MOL1         0.0750
     143    H9      17.944510   19.362829   24.355879 H          1 MOL1         0.0750
@<TRIPOS>BOND
    1     1     2    1
    2     1     3    1
    3     1     4    1
    4     4     5    1
    5     4     6    1
    6     6     7    1
    7     4     8    1
    8     8     9    1
    9     8    10    1
   10    10    11    1
   11     8    12    1
   12    12    13    1
   13    12    14    1
   14    14    15    1
   15     1    16    1
   16    14    16    1
   17    14    17    1
   18    17    18    1
   19    17    19    1
   20    17    20    1
   21    20    21    1
   22    22    23    1
   23    22    24    1
   24    22    25    1
   25    25    26    1
   26    25    27    1
   27    27    28    1
   28    25    29    1
   29    29    30    1
   30    29    31    1
   31    31    32    1
   32     3    33    1
   33    29    33    1
   34    33    34    1
   35    33    35    1
   36    35    36    1
   37    22    37    1
   38    35    37    1
   39    35    38    1
   40    38    39    1
   41    38    40    1
   42    38    41    1
   43    41    42    1
   44    43    44    1
   45    43    45    1
   46    43    46    1
   47    46    47    1
   48    46    48    1
   49    48    49    1
   50    46    50    1
   51    50    51    1
   52    50    52    1
   53    52    53    1
   54    24    54    1
   55    50    54    1
   56    54    55    1
   57    54    56    1
   58    56    57    1
   59    43    58    1
   60    56    58    1
   61    56    59    1
   62    59    60    1
   63    59    61    1
   64    59    62    1
   65    62    63    1
   66    64    65    1
   67    64    66    1
   68    64    67    1
   69    67    68    1
   70    67    69    1
   71    69    70    1
   72    67    71    1
   73    71    72    1
   74    71    73    1
   75    73    74    1
   76    45    75    1
   77    71    75    1
   78    75    76    1
   79    75    77    1
   80    77    78    1
   81    64    79    1
   82    77    79    1
   83    77    80    1
   84    80    81    1
   85    80    82    1
   86    80    83    1
   87    83    84    1
   88    85    86    1
   89    85    87    1
   90    85    88    1
   91    88    89    1
   92    88    90    1
   93    90    91    1
   94    88    92    1
   95    92    93    1
   96    92    94    1
   97    94    95    1
   98    66    96    1
   99    92    96    1
  100    96    97    1
  101    96    98    1
  102    98    99    1
  103    85   100    1
  104    98   100    1
  105    98   101    1
  106   101   102    1
  107   101   103    1
  108   101   104    1
  109   104   105    1
  110   106   107    1
  111    12   108    1
  112   106   108    1
  113   106   109    1
  114   109   110    1
  115   109   111    1
  116   111   112    1
  117   109   113    1
  118   113   114    1
  119   113   115    1
  120   115   116    1
  121    87   117    1
  122   113   117    1
  123   117   118    1
  124   117   119    1
  125   119   120    1
  126   106   121    1
  127   119   121    1
  128   119   122    1
  129   122   123    1
  130   122   124    1
  131   122   125    1
  132   125   126    1
  133   127   128    1
  134   127   129    2
  135   127   130    1
  136   130   131    1
  137   130   132    2
  138   132   133    1
  139   132   134    1
  140   134   135    1
  141   134   136    1
  142   134   137    1
  143   137   138    1
  144   137   139    1
  145   137   140    1
  146   140   141    1
  147   140   142    1
  148   140   143    1
@<TRIPOS>SUBSTRUCTURE
       1 MOL1            1 RESIDUE      1      MOL     
       2 MOL1          143 RESIDUE      1      MOL     
@<SCITEGIC>MOL_PROPERTY
feprocess Rank
SciTegic.value.IntegerValue
109

@<SCITEGIC>MOL_PROPERTY
Conf_Id
SciTegic.value.IntegerValue
776

@<SCITEGIC>MOL_PROPERTY
Probability
SciTegic.value.DoubleValue
0.00

@<SCITEGIC>MOL_PROPERTY
G
SciTegic.value.DoubleValue
501.837

@<SCITEGIC>MOL_PROPERTY
E
SciTegic.value.DoubleValue
320.508

@<SCITEGIC>MOL_PROPERTY
-TS
SciTegic.value.DoubleValue
181.329

@<SCITEGIC>MOL_PROPERTY
U+W
SciTegic.value.DoubleValue
194.420

@<SCITEGIC>MOL_PROPERTY
U
SciTegic.value.DoubleValue
262.209

@<SCITEGIC>MOL_PROPERTY
W
SciTegic.value.DoubleValue
-67.790

@<SCITEGIC>MOL_PROPERTY
W(PB)
SciTegic.value.DoubleValue
-73.648

@<SCITEGIC>MOL_PROPERTY
W(SA)
SciTegic.value.DoubleValue
5.858

@<SCITEGIC>MOL_PROPERTY
Valence
SciTegic.value.DoubleValue
150.128

@<SCITEGIC>MOL_PROPERTY
Coulomb
SciTegic.value.DoubleValue
142.784

@<SCITEGIC>MOL_PROPERTY
VdW
SciTegic.value.DoubleValue
-30.703

@<SCITEGIC>MOL_PROPERTY
VdW6
SciTegic.value.DoubleValue
-184.635

@<SCITEGIC>MOL_PROPERTY
VdW12
SciTegic.value.DoubleValue
153.932

@<SCITEGIC>MOL_PROPERTY
Bond
SciTegic.value.DoubleValue
4.263

@<SCITEGIC>MOL_PROPERTY
Angle
SciTegic.value.DoubleValue
12.842

@<SCITEGIC>MOL_PROPERTY
Pdih
SciTegic.value.DoubleValue
133.023

@<SCITEGIC>MOL_PROPERTY
Idih
SciTegic.value.DoubleValue
0.001

@<SCITEGIC>MOL_PROPERTY
Tether
SciTegic.value.DoubleValue
0.000

@<TRIPOS>MOLECULE
CD_guest-s19_fast_vm2_rndm.mol2 : feprocess host+ligand conformer 110
         143         148           2
SMALL
USER_CHARGES
 
@<TRIPOS>ATOM
       1    C1      15.995810   15.138979   21.089448 C.3        1 MOL1         0.2972
       2    H1      14.951735   14.966221   20.799113 H          1 MOL1         0.0751
       3    O1      16.088563   16.216283   22.041341 O.3        1 MOL1        -0.3740
       4    C2      16.582848   13.842664   21.716960 C.3        1 MOL1         0.1003
       5    H2      16.429864   13.039886   20.984248 H          1 MOL1         0.0783
       6    O2      15.900513   13.501942   22.933638 O.3        1 MOL1        -0.5519
       7    H3      16.138186   14.201964   23.601296 H          1 MOL1         0.3769
       8    C3      18.103695   13.951629   21.986303 C.3        1 MOL1         0.1053
       9    H4      18.248103   14.635899   22.825805 H          1 MOL1         0.0783
      10    O3      18.629126   12.664080   22.326459 O.3        1 MOL1        -0.5519
      11    H5      18.017625   12.307537   23.008357 H          1 MOL1         0.3769
      12    C4      18.868975   14.528245   20.774477 C.3        1 MOL1         0.1018
      13    H6      18.899843   13.766393   19.984316 H          1 MOL1         0.0783
      14    C5      18.186873   15.806284   20.221976 C.3        1 MOL1         0.1043
      15    H7      18.239049   16.590628   20.988554 H          1 MOL1         0.0783
      16    O4      16.803332   15.489330   19.941088 O.3        1 MOL1        -0.3740
      17    C6      18.828071   16.383820   18.933341 C.3        1 MOL1         0.0138
      18    H8      19.619506   17.086274   19.222652 H          1 MOL1         0.0794
      19    H9      18.067035   16.964246   18.395397 H          1 MOL1         0.0794
      20    O5      19.371545   15.379584   18.069421 O.3        1 MOL1        -0.5486
      21    H10     20.228615   15.093752   18.463129 H          1 MOL1         0.3769
      22    C7      14.912851   20.191047   21.932934 C.3        1 MOL1         0.2972
      23    H11     14.375342   21.147784   21.948521 H          1 MOL1         0.0751
      24    O6      16.316466   20.392531   21.669309 O.3        1 MOL1        -0.3740
      25    C8      14.734371   19.485054   23.294871 C.3        1 MOL1         0.1003
      26    H12     13.658258   19.342503   23.456655 H          1 MOL1         0.0783
      27    O7      15.265824   20.320414   24.334977 O.3        1 MOL1        -0.5519
      28    H13     16.161500   20.587459   24.036533 H          1 MOL1         0.3769
      29    C9      15.406078   18.091542   23.303222 C.3        1 MOL1         0.1053
      30    H14     16.491846   18.253095   23.301722 H          1 MOL1         0.0783
      31    O8      15.021891   17.382080   24.487152 O.3        1 MOL1        -0.5519
      32    H15     15.623878   16.595274   24.558300 H          1 MOL1         0.3769
      33    C10     15.046514   17.226557   22.063485 C.3        1 MOL1         0.1018
      34    H16     14.066709   16.764654   22.239734 H          1 MOL1         0.0783
      35    C11     15.010162   18.041697   20.725947 C.3        1 MOL1         0.1043
      36    H17     16.045608   18.188165   20.404285 H          1 MOL1         0.0783
      37    O9      14.379358   19.335451   20.907979 O.3        1 MOL1        -0.3740
      38    C12     14.229967   17.373823   19.560627 C.3        1 MOL1         0.0138
      39    H18     14.842021   16.594306   19.095657 H          1 MOL1         0.0794
      40    H19     14.056277   18.129650   18.782775 H          1 MOL1         0.0794
      41    O10     12.979753   16.821358   19.989578 O.3        1 MOL1        -0.5486
      42    H20     12.503908   16.504096   19.191154 H          1 MOL1         0.3769
      43    C13     18.772230   23.378595   20.056351 C.3        1 MOL1         0.2972
      44    H21     19.196820   24.183523   19.442793 H          1 MOL1         0.0751
      45    O11     19.759784   22.796422   20.925683 O.3        1 MOL1        -0.3740
      46    C14     17.596598   23.897276   20.925264 C.3        1 MOL1         0.1003
      47    H22     16.839377   24.295603   20.237462 H          1 MOL1         0.0783
      48    O12     18.021407   24.945879   21.811135 O.3        1 MOL1        -0.5519
      49    H23     18.764317   24.586002   22.359136 H          1 MOL1         0.3769
      50    C15     16.945720   22.745518   21.732787 C.3        1 MOL1         0.1053
      51    H24     17.662444   22.417254   22.496161 H          1 MOL1         0.0783
      52    O13     15.759685   23.242956   22.359010 O.3        1 MOL1        -0.5519
      53    H25     16.024946   24.089046   22.782310 H          1 MOL1         0.3769
      54    C16     16.610321   21.529076   20.826524 C.3        1 MOL1         0.1018
      55    H26     15.751054   21.794189   20.196486 H          1 MOL1         0.0783
      56    C17     17.800274   21.140993   19.907091 C.3        1 MOL1         0.1043
      57    H27     18.608750   20.742292   20.533510 H          1 MOL1         0.0783
      58    O14     18.264046   22.323619   19.211657 O.3        1 MOL1        -0.3740
      59    C18     17.470337   20.052905   18.855039 C.3        1 MOL1         0.0138
      60    H28     17.623692   19.072518   19.319852 H          1 MOL1         0.0794
      61    H29     18.193904   20.128164   18.032369 H          1 MOL1         0.0794
      62    O15     16.133809   20.146753   18.345176 O.3        1 MOL1        -0.5486
      63    H30     15.517821   20.010586   19.100248 H          1 MOL1         0.3769
      64    C19     23.646246   22.961647   22.150530 C.3        1 MOL1         0.2972
      65    H31     24.680819   23.187114   22.439316 H          1 MOL1         0.0751
      66    O16     23.371699   21.549221   22.213816 O.3        1 MOL1        -0.3740
      67    C20     22.664127   23.667566   23.114070 C.3        1 MOL1         0.1003
      68    H32     22.817930   24.750303   23.018419 H          1 MOL1         0.0783
      69    O17     22.924760   23.261272   24.466776 O.3        1 MOL1        -0.5519
      70    H33     23.196368   22.313246   24.426748 H          1 MOL1         0.3769
      71    C21     21.200395   23.349526   22.729600 C.3        1 MOL1         0.1053
      72    H34     21.022254   22.287874   22.939990 H          1 MOL1         0.0783
      73    O18     20.310554   24.146157   23.519051 O.3        1 MOL1        -0.5519
      74    H35     20.629008   24.042863   24.443284 H          1 MOL1         0.3769
      75    C22     20.922896   23.589524   21.224610 C.3        1 MOL1         0.1018
      76    H36     20.747298   24.661798   21.065555 H          1 MOL1         0.0783
      77    C23     22.060143   23.080148   20.291640 C.3        1 MOL1         0.1043
      78    H37     21.975968   21.987044   20.244551 H          1 MOL1         0.0783
      79    O19     23.368185   23.427416   20.815091 O.3        1 MOL1        -0.3740
      80    C24     21.961106   23.607107   18.839643 C.3        1 MOL1         0.0138
      81    H38     21.112446   23.114988   18.345774 H          1 MOL1         0.0794
      82    H39     22.868839   23.311955   18.296417 H          1 MOL1         0.0794
      83    O20     21.794672   25.029185   18.791250 O.3        1 MOL1        -0.5486
      84    H40     21.829086   25.302196   17.848419 H          1 MOL1         0.3769
      85    C25     25.044917   17.777095   21.845113 C.3        1 MOL1         0.2972
      86    H41     25.717390   16.916175   21.737646 H          1 MOL1         0.0751
      87    O21     23.661569   17.372677   21.841156 O.3        1 MOL1        -0.3740
      88    C26     25.335328   18.500565   23.181814 C.3        1 MOL1         0.1003
      89    H42     26.381288   18.832980   23.159698 H          1 MOL1         0.0783
      90    O22     25.144001   17.602030   24.286232 O.3        1 MOL1        -0.5519
      91    H43     24.530806   16.892617   23.973342 H          1 MOL1         0.3769
      92    C27     24.438355   19.749845   23.337614 C.3        1 MOL1         0.1053
      93    H44     23.404845   19.404983   23.459430 H          1 MOL1         0.0783
      94    O23     24.836551   20.487916   24.497578 O.3        1 MOL1        -0.5519
      95    H45     24.922856   19.815223   25.208984 H          1 MOL1         0.3769
      96    C28     24.495805   20.659388   22.084884 C.3        1 MOL1         0.1018
      97    H46     25.454808   21.193736   22.084260 H          1 MOL1         0.0783
      98    C29     24.333852   19.852903   20.762666 C.3        1 MOL1         0.1043
      99    H47     23.298548   19.492213   20.724392 H          1 MOL1         0.0783
     100    O24     25.236652   18.717233   20.767523 O.3        1 MOL1        -0.3740
     101    C30     24.583604   20.650699   19.455585 C.3        1 MOL1         0.0138
     102    H48     23.628893   21.057352   19.103039 H          1 MOL1         0.0794
     103    H49     24.928690   19.952820   18.680845 H          1 MOL1         0.0794
     104    O25     25.530524   21.713046   19.609397 O.3        1 MOL1        -0.5486
     105    H50     25.041850   22.472560   20.003303 H          1 MOL1         0.3769
     106    C31     21.272848   14.146661   20.656232 C.3        1 MOL1         0.2972
     107    H51     20.931096   13.203086   20.211576 H          1 MOL1         0.0751
     108    O26     20.182534   14.876594   21.249569 O.3        1 MOL1        -0.3740
     109    C32     22.315303   13.851155   21.764407 C.3        1 MOL1         0.1003
     110    H52     23.145093   13.302437   21.300289 H          1 MOL1         0.0783
     111    O27     21.731387   13.042003   22.797463 O.3        1 MOL1        -0.5519
     112    H53     20.757185   13.206764   22.771186 H          1 MOL1         0.3769
     113    C33     22.882183   15.162330   22.357007 C.3        1 MOL1         0.1053
     114    H54     22.070127   15.668783   22.894399 H          1 MOL1         0.0783
     115    O28     23.950133   14.862789   23.261880 O.3        1 MOL1        -0.5519
     116    H55     23.608224   14.132426   23.824299 H          1 MOL1         0.3769
     117    C34     23.386591   16.097918   21.232039 C.3        1 MOL1         0.1018
     118    H56     24.283973   15.653416   20.781588 H          1 MOL1         0.0783
     119    C35     22.311272   16.297322   20.128895 C.3        1 MOL1         0.1043
     120    H57     21.461285   16.828014   20.576418 H          1 MOL1         0.0783
     121    O29     21.876905   14.996346   19.656227 O.3        1 MOL1        -0.3740
     122    C36     22.773963   17.129360   18.904689 C.3        1 MOL1         0.0138
     123    H58     22.581103   18.189270   19.108824 H          1 MOL1         0.0794
     124    H59     22.151593   16.857497   18.041579 H          1 MOL1         0.0794
     125    O30     24.158143   16.944968   18.586701 O.3        1 MOL1        -0.5486
     126    H60     24.678603   17.442885   19.259288 H          1 MOL1         0.3769
     127    C1      17.947411   15.772270   25.318907 C.2        1 MOL1         0.6173
     128    O1      16.899075   15.328054   24.884732 O.co2      1 MOL1        -0.6755
     129    O2      18.368168   15.523144   26.432577 O.co2      1 MOL1        -0.6755
     130    C2      18.746978   16.633814   24.405558 C.2        1 MOL1        -0.1504
     131    H1      18.312858   16.816232   23.427583 H          1 MOL1         0.0814
     132    C3      19.948096   17.170214   24.713947 C.2        1 MOL1        -0.1394
     133    H2      20.405261   16.999950   25.687993 H          1 MOL1         0.0817
     134    C4      20.751656   18.011151   23.744591 C.3        1 MOL1        -0.1849
     135    H3      20.510921   17.733105   22.710143 H          1 MOL1         0.0736
     136    H4      21.816446   17.787414   23.882850 H          1 MOL1         0.0736
     137    C5      20.534767   19.527157   23.935161 C.3        1 MOL1        -0.1866
     138    H5      20.833368   19.819536   24.951050 H          1 MOL1         0.0738
     139    H6      21.196107   20.063936   23.244102 H          1 MOL1         0.0738
     140    C6      19.079407   19.966516   23.674510 C.3        1 MOL1        -0.2879
     141    H7      18.394982   19.516566   24.404724 H          1 MOL1         0.0750
     142    H8      18.989565   21.056150   23.757657 H          1 MOL1         0.0750
     143    H9      18.756338   19.668174   22.670170 H          1 MOL1         0.0750
@<TRIPOS>BOND
    1     1     2    1
    2     1     3    1
    3     1     4    1
    4     4     5    1
    5     4     6    1
    6     6     7    1
    7     4     8    1
    8     8     9    1
    9     8    10    1
   10    10    11    1
   11     8    12    1
   12    12    13    1
   13    12    14    1
   14    14    15    1
   15     1    16    1
   16    14    16    1
   17    14    17    1
   18    17    18    1
   19    17    19    1
   20    17    20    1
   21    20    21    1
   22    22    23    1
   23    22    24    1
   24    22    25    1
   25    25    26    1
   26    25    27    1
   27    27    28    1
   28    25    29    1
   29    29    30    1
   30    29    31    1
   31    31    32    1
   32     3    33    1
   33    29    33    1
   34    33    34    1
   35    33    35    1
   36    35    36    1
   37    22    37    1
   38    35    37    1
   39    35    38    1
   40    38    39    1
   41    38    40    1
   42    38    41    1
   43    41    42    1
   44    43    44    1
   45    43    45    1
   46    43    46    1
   47    46    47    1
   48    46    48    1
   49    48    49    1
   50    46    50    1
   51    50    51    1
   52    50    52    1
   53    52    53    1
   54    24    54    1
   55    50    54    1
   56    54    55    1
   57    54    56    1
   58    56    57    1
   59    43    58    1
   60    56    58    1
   61    56    59    1
   62    59    60    1
   63    59    61    1
   64    59    62    1
   65    62    63    1
   66    64    65    1
   67    64    66    1
   68    64    67    1
   69    67    68    1
   70    67    69    1
   71    69    70    1
   72    67    71    1
   73    71    72    1
   74    71    73    1
   75    73    74    1
   76    45    75    1
   77    71    75    1
   78    75    76    1
   79    75    77    1
   80    77    78    1
   81    64    79    1
   82    77    79    1
   83    77    80    1
   84    80    81    1
   85    80    82    1
   86    80    83    1
   87    83    84    1
   88    85    86    1
   89    85    87    1
   90    85    88    1
   91    88    89    1
   92    88    90    1
   93    90    91    1
   94    88    92    1
   95    92    93    1
   96    92    94    1
   97    94    95    1
   98    66    96    1
   99    92    96    1
  100    96    97    1
  101    96    98    1
  102    98    99    1
  103    85   100    1
  104    98   100    1
  105    98   101    1
  106   101   102    1
  107   101   103    1
  108   101   104    1
  109   104   105    1
  110   106   107    1
  111    12   108    1
  112   106   108    1
  113   106   109    1
  114   109   110    1
  115   109   111    1
  116   111   112    1
  117   109   113    1
  118   113   114    1
  119   113   115    1
  120   115   116    1
  121    87   117    1
  122   113   117    1
  123   117   118    1
  124   117   119    1
  125   119   120    1
  126   106   121    1
  127   119   121    1
  128   119   122    1
  129   122   123    1
  130   122   124    1
  131   122   125    1
  132   125   126    1
  133   127   128    1
  134   127   129    2
  135   127   130    1
  136   130   131    1
  137   130   132    2
  138   132   133    1
  139   132   134    1
  140   134   135    1
  141   134   136    1
  142   134   137    1
  143   137   138    1
  144   137   139    1
  145   137   140    1
  146   140   141    1
  147   140   142    1
  148   140   143    1
@<TRIPOS>SUBSTRUCTURE
       1 MOL1            1 RESIDUE      1      MOL     
       2 MOL1          143 RESIDUE      1      MOL     
@<SCITEGIC>MOL_PROPERTY
feprocess Rank
SciTegic.value.IntegerValue
110

@<SCITEGIC>MOL_PROPERTY
Conf_Id
SciTegic.value.IntegerValue
516

@<SCITEGIC>MOL_PROPERTY
Probability
SciTegic.value.DoubleValue
0.00

@<SCITEGIC>MOL_PROPERTY
G
SciTegic.value.DoubleValue
501.894

@<SCITEGIC>MOL_PROPERTY
E
SciTegic.value.DoubleValue
319.721

@<SCITEGIC>MOL_PROPERTY
-TS
SciTegic.value.DoubleValue
182.172

@<SCITEGIC>MOL_PROPERTY
U+W
SciTegic.value.DoubleValue
193.633

@<SCITEGIC>MOL_PROPERTY
U
SciTegic.value.DoubleValue
276.397

@<SCITEGIC>MOL_PROPERTY
W
SciTegic.value.DoubleValue
-82.764

@<SCITEGIC>MOL_PROPERTY
W(PB)
SciTegic.value.DoubleValue
-88.718

@<SCITEGIC>MOL_PROPERTY
W(SA)
SciTegic.value.DoubleValue
5.954

@<SCITEGIC>MOL_PROPERTY
Valence
SciTegic.value.DoubleValue
148.929

@<SCITEGIC>MOL_PROPERTY
Coulomb
SciTegic.value.DoubleValue
151.614

@<SCITEGIC>MOL_PROPERTY
VdW
SciTegic.value.DoubleValue
-24.145

@<SCITEGIC>MOL_PROPERTY
VdW6
SciTegic.value.DoubleValue
-178.596

@<SCITEGIC>MOL_PROPERTY
VdW12
SciTegic.value.DoubleValue
154.451

@<SCITEGIC>MOL_PROPERTY
Bond
SciTegic.value.DoubleValue
4.895

@<SCITEGIC>MOL_PROPERTY
Angle
SciTegic.value.DoubleValue
15.081

@<SCITEGIC>MOL_PROPERTY
Pdih
SciTegic.value.DoubleValue
128.949

@<SCITEGIC>MOL_PROPERTY
Idih
SciTegic.value.DoubleValue
0.003

@<SCITEGIC>MOL_PROPERTY
Tether
SciTegic.value.DoubleValue
0.000

@<TRIPOS>MOLECULE
CD_guest-s19_fast_vm2_rndm.mol2 : feprocess host+ligand conformer 111
         143         148           2
SMALL
USER_CHARGES
 
@<TRIPOS>ATOM
       1    C1      16.184327   15.141435   21.670659 C.3        1 MOL1         0.2972
       2    H1      15.118510   14.924657   21.817798 H          1 MOL1         0.0751
       3    O1      16.453366   16.552364   21.701882 O.3        1 MOL1        -0.3740
       4    C2      17.015608   14.493985   22.802195 C.3        1 MOL1         0.1003
       5    H2      16.864961   13.407953   22.747648 H          1 MOL1         0.0783
       6    O2      16.576406   14.972213   24.084152 O.3        1 MOL1        -0.5519
       7    H3      16.191194   15.871592   23.938270 H          1 MOL1         0.3769
       8    C3      18.521681   14.781927   22.602774 C.3        1 MOL1         0.1053
       9    H4      18.689238   15.860560   22.729504 H          1 MOL1         0.0783
      10    O3      19.266289   14.057917   23.587077 O.3        1 MOL1        -0.5519
      11    H5      18.797371   14.232643   24.433848 H          1 MOL1         0.3769
      12    C4      18.978982   14.383791   21.177013 C.3        1 MOL1         0.1018
      13    H6      19.032588   13.288455   21.118299 H          1 MOL1         0.0783
      14    C5      18.027653   14.932031   20.075344 C.3        1 MOL1         0.1043
      15    H7      18.158832   16.021274   20.031165 H          1 MOL1         0.0783
      16    O4      16.646410   14.626923   20.404326 O.3        1 MOL1        -0.3740
      17    C6      18.330153   14.383213   18.661252 C.3        1 MOL1         0.0138
      18    H8      19.272695   14.826912   18.311949 H          1 MOL1         0.0794
      19    H9      17.539594   14.721219   17.977976 H          1 MOL1         0.0794
      20    O5      18.427372   12.953130   18.646228 O.3        1 MOL1        -0.5486
      21    H10     18.544078   12.672724   17.712425 H          1 MOL1         0.3769
      22    C7      14.652192   20.258622   21.328330 C.3        1 MOL1         0.2972
      23    H11     13.957046   21.093637   21.172924 H          1 MOL1         0.0751
      24    O6      15.993957   20.718018   21.573383 O.3        1 MOL1        -0.3740
      25    C8      14.217952   19.436801   22.565716 C.3        1 MOL1         0.1003
      26    H12     13.213031   19.040994   22.369514 H          1 MOL1         0.0783
      27    O7      14.182803   20.272498   23.733716 O.3        1 MOL1        -0.5519
      28    H13     14.853548   20.985877   23.594520 H          1 MOL1         0.3769
      29    C9      15.173863   18.241474   22.783036 C.3        1 MOL1         0.1053
      30    H14     16.161098   18.635638   23.060744 H          1 MOL1         0.0783
      31    O8      14.675397   17.409119   23.835477 O.3        1 MOL1        -0.5519
      32    H15     14.430061   18.031472   24.556033 H          1 MOL1         0.3769
      33    C10     15.330058   17.416967   21.483108 C.3        1 MOL1         0.1018
      34    H16     14.400398   16.860126   21.307260 H          1 MOL1         0.0783
      35    C11     15.644731   18.305341   20.246810 C.3        1 MOL1         0.1043
      36    H17     16.648612   18.726798   20.378574 H          1 MOL1         0.0783
      37    O9      14.678319   19.385722   20.176912 O.3        1 MOL1        -0.3740
      38    C12     15.655970   17.553439   18.890312 C.3        1 MOL1         0.0138
      39    H18     16.667454   17.165262   18.716819 H          1 MOL1         0.0794
      40    H19     15.454917   18.275353   18.087782 H          1 MOL1         0.0794
      41    O10     14.716005   16.474023   18.832261 O.3        1 MOL1        -0.5486
      42    H20     15.135958   15.710185   19.290878 H          1 MOL1         0.3769
      43    C13     18.454862   24.021044   20.960959 C.3        1 MOL1         0.2972
      44    H21     18.843479   25.004306   20.666937 H          1 MOL1         0.0751
      45    O11     19.479880   23.198676   21.549025 O.3        1 MOL1        -0.3740
      46    C14     17.341233   24.198545   22.021701 C.3        1 MOL1         0.1003
      47    H22     16.554727   24.823551   21.579212 H          1 MOL1         0.0783
      48    O12     17.868783   24.848129   23.189622 O.3        1 MOL1        -0.5519
      49    H23     18.802159   24.536598   23.290060 H          1 MOL1         0.3769
      50    C15     16.717843   22.834590   22.397868 C.3        1 MOL1         0.1053
      51    H24     17.477899   22.247769   22.929524 H          1 MOL1         0.0783
      52    O13     15.584063   23.039738   23.247768 O.3        1 MOL1        -0.5519
      53    H25     15.886799   23.683010   23.926542 H          1 MOL1         0.3769
      54    C16     16.297210   22.050126   21.132387 C.3        1 MOL1         0.1018
      55    H26     15.426720   22.548614   20.686051 H          1 MOL1         0.0783
      56    C17     17.442740   21.976753   20.084595 C.3        1 MOL1         0.1043
      57    H27     18.261818   21.379048   20.507750 H          1 MOL1         0.0783
      58    O14     17.909559   23.324046   19.819752 O.3        1 MOL1        -0.3740
      59    C18     17.055095   21.320171   18.733834 C.3        1 MOL1         0.0138
      60    H28     17.219753   20.238644   18.809892 H          1 MOL1         0.0794
      61    H29     17.739365   21.686173   17.957061 H          1 MOL1         0.0794
      62    O15     15.697880   21.572505   18.351764 O.3        1 MOL1        -0.5486
      63    H30     15.141212   20.928676   18.847658 H          1 MOL1         0.3769
      64    C19     23.645542   22.733870   21.403137 C.3        1 MOL1         0.2972
      65    H31     24.713366   22.903664   21.214183 H          1 MOL1         0.0751
      66    O16     23.403852   21.431890   21.963173 O.3        1 MOL1        -0.3740
      67    C20     23.104014   23.761865   22.428547 C.3        1 MOL1         0.1003
      68    H32     23.296857   24.765550   22.028118 H          1 MOL1         0.0783
      69    O17     23.778481   23.608706   23.688667 O.3        1 MOL1        -0.5519
      70    H33     23.834429   22.636646   23.862425 H          1 MOL1         0.3769
      71    C21     21.574436   23.602607   22.620391 C.3        1 MOL1         0.1053
      72    H34     21.389095   22.643800   23.124630 H          1 MOL1         0.0783
      73    O18     21.078191   24.678871   23.425101 O.3        1 MOL1        -0.5519
      74    H35     21.690785   24.730413   24.191753 H          1 MOL1         0.3769
      75    C22     20.836988   23.578926   21.259679 C.3        1 MOL1         0.1018
      76    H36     20.897932   24.582755   20.819193 H          1 MOL1         0.0783
      77    C23     21.475581   22.548962   20.286800 C.3        1 MOL1         0.1043
      78    H37     21.344926   21.542774   20.704443 H          1 MOL1         0.0783
      79    O19     22.885842   22.856891   20.181794 O.3        1 MOL1        -0.3740
      80    C24     20.884728   22.516732   18.855347 C.3        1 MOL1         0.0138
      81    H38     20.022599   21.838222   18.851836 H          1 MOL1         0.0794
      82    H39     21.630656   22.072916   18.182731 H          1 MOL1         0.0794
      83    O20     20.490127   23.807619   18.376099 O.3        1 MOL1        -0.5486
      84    H40     19.557619   23.934826   18.664128 H          1 MOL1         0.3769
      85    C25     25.046724   17.630144   22.016368 C.3        1 MOL1         0.2972
      86    H41     25.715632   16.760208   22.046530 H          1 MOL1         0.0751
      87    O21     23.671969   17.225825   21.879391 O.3        1 MOL1        -0.3740
      88    C26     25.188365   18.437594   23.328643 C.3        1 MOL1         0.1003
      89    H42     26.233508   18.763666   23.409020 H          1 MOL1         0.0783
      90    O22     24.857147   17.611726   24.455262 O.3        1 MOL1        -0.5519
      91    H43     24.184992   16.966140   24.134035 H          1 MOL1         0.3769
      92    C27     24.293112   19.696218   23.300444 C.3        1 MOL1         0.1053
      93    H44     23.245402   19.367406   23.314958 H          1 MOL1         0.0783
      94    O23     24.563726   20.504672   24.451793 O.3        1 MOL1        -0.5519
      95    H45     24.547097   19.881066   25.211064 H          1 MOL1         0.3769
      96    C28     24.520692   20.527034   22.015555 C.3        1 MOL1         0.1018
      97    H46     25.475726   21.060186   22.111471 H          1 MOL1         0.0783
      98    C29     24.516375   19.649067   20.730302 C.3        1 MOL1         0.1043
      99    H47     23.482907   19.319179   20.564312 H          1 MOL1         0.0783
     100    O24     25.374878   18.491470   20.908207 O.3        1 MOL1        -0.3740
     101    C30     24.986434   20.378674   19.448330 C.3        1 MOL1         0.0138
     102    H48     24.185679   21.044798   19.105424 H          1 MOL1         0.0794
     103    H49     25.136632   19.632683   18.656547 H          1 MOL1         0.0794
     104    O25     26.192213   21.123829   19.661118 O.3        1 MOL1        -0.5486
     105    H50     26.457517   21.511984   18.799154 H          1 MOL1         0.3769
     106    C31     21.289818   14.173393   20.386886 C.3        1 MOL1         0.2972
     107    H51     20.869000   13.299159   19.873731 H          1 MOL1         0.0751
     108    O26     20.262035   14.999423   20.968515 O.3        1 MOL1        -0.3740
     109    C32     22.276697   13.749232   21.504358 C.3        1 MOL1         0.1003
     110    H52     23.105728   13.215854   21.021297 H          1 MOL1         0.0783
     111    O27     21.655476   12.875749   22.459184 O.3        1 MOL1        -0.5519
     112    H53     20.863873   13.351315   22.818554 H          1 MOL1         0.3769
     113    C33     22.858516   15.001118   22.204611 C.3        1 MOL1         0.1053
     114    H54     22.040858   15.513015   22.731474 H          1 MOL1         0.0783
     115    O28     23.863175   14.599900   23.142237 O.3        1 MOL1        -0.5519
     116    H55     23.472032   13.841400   23.629811 H          1 MOL1         0.3769
     117    C34     23.463099   15.987629   21.172977 C.3        1 MOL1         0.1018
     118    H56     24.404709   15.559202   20.805611 H          1 MOL1         0.0783
     119    C35     22.517074   16.250397   19.962838 C.3        1 MOL1         0.1043
     120    H57     21.667876   16.850454   20.312402 H          1 MOL1         0.0783
     121    O29     22.033415   14.982810   19.453471 O.3        1 MOL1        -0.3740
     122    C36     23.158230   17.014473   18.774245 C.3        1 MOL1         0.0138
     123    H58     22.996568   18.088483   18.915357 H          1 MOL1         0.0794
     124    H59     22.618759   16.743632   17.856931 H          1 MOL1         0.0794
     125    O30     24.558406   16.751403   18.616291 O.3        1 MOL1        -0.5486
     126    H60     25.024527   17.249160   19.328040 H          1 MOL1         0.3769
     127    C1      19.796323   18.758308   19.678341 C.2        1 MOL1         0.6173
     128    O1      20.817430   19.302146   19.298827 O.co2      1 MOL1        -0.6755
     129    O2      18.940977   18.327672   18.928673 O.co2      1 MOL1        -0.6755
     130    C2      19.537176   18.636941   21.136682 C.2        1 MOL1        -0.1504
     131    H1      18.597084   18.170771   21.415246 H          1 MOL1         0.0814
     132    C3      20.380393   19.079258   22.094921 C.2        1 MOL1        -0.1394
     133    H2      21.328515   19.546853   21.836835 H          1 MOL1         0.0817
     134    C4      20.066051   18.992294   23.570176 C.3        1 MOL1        -0.1849
     135    H3      20.985668   19.112158   24.157526 H          1 MOL1         0.0736
     136    H4      19.665385   17.998002   23.808985 H          1 MOL1         0.0736
     137    C5      19.047259   20.078222   23.971850 C.3        1 MOL1        -0.1866
     138    H5      19.467171   21.070868   23.758926 H          1 MOL1         0.0738
     139    H6      18.142316   19.977197   23.358255 H          1 MOL1         0.0738
     140    C6      18.664142   19.986695   25.461311 C.3        1 MOL1        -0.2879
     141    H7      19.546570   20.113899   26.101629 H          1 MOL1         0.0750
     142    H8      17.938832   20.768523   25.721176 H          1 MOL1         0.0750
     143    H9      18.210305   19.013446   25.689366 H          1 MOL1         0.0750
@<TRIPOS>BOND
    1     1     2    1
    2     1     3    1
    3     1     4    1
    4     4     5    1
    5     4     6    1
    6     6     7    1
    7     4     8    1
    8     8     9    1
    9     8    10    1
   10    10    11    1
   11     8    12    1
   12    12    13    1
   13    12    14    1
   14    14    15    1
   15     1    16    1
   16    14    16    1
   17    14    17    1
   18    17    18    1
   19    17    19    1
   20    17    20    1
   21    20    21    1
   22    22    23    1
   23    22    24    1
   24    22    25    1
   25    25    26    1
   26    25    27    1
   27    27    28    1
   28    25    29    1
   29    29    30    1
   30    29    31    1
   31    31    32    1
   32     3    33    1
   33    29    33    1
   34    33    34    1
   35    33    35    1
   36    35    36    1
   37    22    37    1
   38    35    37    1
   39    35    38    1
   40    38    39    1
   41    38    40    1
   42    38    41    1
   43    41    42    1
   44    43    44    1
   45    43    45    1
   46    43    46    1
   47    46    47    1
   48    46    48    1
   49    48    49    1
   50    46    50    1
   51    50    51    1
   52    50    52    1
   53    52    53    1
   54    24    54    1
   55    50    54    1
   56    54    55    1
   57    54    56    1
   58    56    57    1
   59    43    58    1
   60    56    58    1
   61    56    59    1
   62    59    60    1
   63    59    61    1
   64    59    62    1
   65    62    63    1
   66    64    65    1
   67    64    66    1
   68    64    67    1
   69    67    68    1
   70    67    69    1
   71    69    70    1
   72    67    71    1
   73    71    72    1
   74    71    73    1
   75    73    74    1
   76    45    75    1
   77    71    75    1
   78    75    76    1
   79    75    77    1
   80    77    78    1
   81    64    79    1
   82    77    79    1
   83    77    80    1
   84    80    81    1
   85    80    82    1
   86    80    83    1
   87    83    84    1
   88    85    86    1
   89    85    87    1
   90    85    88    1
   91    88    89    1
   92    88    90    1
   93    90    91    1
   94    88    92    1
   95    92    93    1
   96    92    94    1
   97    94    95    1
   98    66    96    1
   99    92    96    1
  100    96    97    1
  101    96    98    1
  102    98    99    1
  103    85   100    1
  104    98   100    1
  105    98   101    1
  106   101   102    1
  107   101   103    1
  108   101   104    1
  109   104   105    1
  110   106   107    1
  111    12   108    1
  112   106   108    1
  113   106   109    1
  114   109   110    1
  115   109   111    1
  116   111   112    1
  117   109   113    1
  118   113   114    1
  119   113   115    1
  120   115   116    1
  121    87   117    1
  122   113   117    1
  123   117   118    1
  124   117   119    1
  125   119   120    1
  126   106   121    1
  127   119   121    1
  128   119   122    1
  129   122   123    1
  130   122   124    1
  131   122   125    1
  132   125   126    1
  133   127   128    1
  134   127   129    2
  135   127   130    1
  136   130   131    1
  137   130   132    2
  138   132   133    1
  139   132   134    1
  140   134   135    1
  141   134   136    1
  142   134   137    1
  143   137   138    1
  144   137   139    1
  145   137   140    1
  146   140   141    1
  147   140   142    1
  148   140   143    1
@<TRIPOS>SUBSTRUCTURE
       1 MOL1            1 RESIDUE      1      MOL     
       2 MOL1          143 RESIDUE      1      MOL     
@<SCITEGIC>MOL_PROPERTY
feprocess Rank
SciTegic.value.IntegerValue
111

@<SCITEGIC>MOL_PROPERTY
Conf_Id
SciTegic.value.IntegerValue
562

@<SCITEGIC>MOL_PROPERTY
Probability
SciTegic.value.DoubleValue
0.00

@<SCITEGIC>MOL_PROPERTY
G
SciTegic.value.DoubleValue
501.952

@<SCITEGIC>MOL_PROPERTY
E
SciTegic.value.DoubleValue
322.252

@<SCITEGIC>MOL_PROPERTY
-TS
SciTegic.value.DoubleValue
179.700

@<SCITEGIC>MOL_PROPERTY
U+W
SciTegic.value.DoubleValue
196.164

@<SCITEGIC>MOL_PROPERTY
U
SciTegic.value.DoubleValue
264.058

@<SCITEGIC>MOL_PROPERTY
W
SciTegic.value.DoubleValue
-67.895

@<SCITEGIC>MOL_PROPERTY
W(PB)
SciTegic.value.DoubleValue
-73.854

@<SCITEGIC>MOL_PROPERTY
W(SA)
SciTegic.value.DoubleValue
5.959

@<SCITEGIC>MOL_PROPERTY
Valence
SciTegic.value.DoubleValue
149.937

@<SCITEGIC>MOL_PROPERTY
Coulomb
SciTegic.value.DoubleValue
142.501

@<SCITEGIC>MOL_PROPERTY
VdW
SciTegic.value.DoubleValue
-28.379

@<SCITEGIC>MOL_PROPERTY
VdW6
SciTegic.value.DoubleValue
-180.051

@<SCITEGIC>MOL_PROPERTY
VdW12
SciTegic.value.DoubleValue
151.672

@<SCITEGIC>MOL_PROPERTY
Bond
SciTegic.value.DoubleValue
4.293

@<SCITEGIC>MOL_PROPERTY
Angle
SciTegic.value.DoubleValue
13.015

@<SCITEGIC>MOL_PROPERTY
Pdih
SciTegic.value.DoubleValue
132.625

@<SCITEGIC>MOL_PROPERTY
Idih
SciTegic.value.DoubleValue
0.004

@<SCITEGIC>MOL_PROPERTY
Tether
SciTegic.value.DoubleValue
0.000

@<TRIPOS>MOLECULE
CD_guest-s19_fast_vm2_rndm.mol2 : feprocess host+ligand conformer 112
         143         148           2
SMALL
USER_CHARGES
 
@<TRIPOS>ATOM
       1    C1      16.166356   15.100140   21.960351 C.3        1 MOL1         0.2972
       2    H1      15.106014   14.902234   22.162819 H          1 MOL1         0.0751
       3    O1      16.439511   16.511076   21.885905 O.3        1 MOL1        -0.3740
       4    C2      17.034821   14.511936   23.097455 C.3        1 MOL1         0.1003
       5    H2      16.865318   13.427600   23.120190 H          1 MOL1         0.0783
       6    O2      16.650262   15.082733   24.358513 O.3        1 MOL1        -0.5519
       7    H3      16.329558   15.998101   24.169305 H          1 MOL1         0.3769
       8    C3      18.537530   14.757918   22.827097 C.3        1 MOL1         0.1053
       9    H4      18.724976   15.835356   22.917563 H          1 MOL1         0.0783
      10    O3      19.319472   14.049899   23.795188 O.3        1 MOL1        -0.5519
      11    H5      18.934770   14.298622   24.664541 H          1 MOL1         0.3769
      12    C4      18.946560   14.311149   21.401750 C.3        1 MOL1         0.1018
      13    H6      19.043139   13.217202   21.395500 H          1 MOL1         0.0783
      14    C5      17.938683   14.768147   20.306216 C.3        1 MOL1         0.1043
      15    H7      18.062984   15.850162   20.170689 H          1 MOL1         0.0783
      16    O4      16.573551   14.495408   20.716669 O.3        1 MOL1        -0.3740
      17    C6      18.168237   14.106181   18.926200 C.3        1 MOL1         0.0138
      18    H8      19.084036   14.522992   18.485835 H          1 MOL1         0.0794
      19    H9      17.335995   14.379730   18.263841 H          1 MOL1         0.0794
      20    O5      18.278503   12.680749   19.022356 O.3        1 MOL1        -0.5486
      21    H10     18.332945   12.323420   18.109247 H          1 MOL1         0.3769
      22    C7      14.715530   20.207366   21.185008 C.3        1 MOL1         0.2972
      23    H11     14.047579   21.051872   20.971983 H          1 MOL1         0.0751
      24    O6      16.087165   20.629372   21.312445 O.3        1 MOL1        -0.3740
      25    C8      14.310181   19.537684   22.520022 C.3        1 MOL1         0.1003
      26    H12     13.286594   19.157338   22.407622 H          1 MOL1         0.0783
      27    O7      14.349682   20.493294   23.592058 O.3        1 MOL1        -0.5519
      28    H13     15.004928   21.187412   23.332423 H          1 MOL1         0.3769
      29    C9      15.239615   18.340462   22.825282 C.3        1 MOL1         0.1053
      30    H14     16.247171   18.734733   23.009780 H          1 MOL1         0.0783
      31    O8      14.773631   17.648477   23.988512 O.3        1 MOL1        -0.5519
      32    H15     14.580932   18.355608   24.643682 H          1 MOL1         0.3769
      33    C10     15.313290   17.366718   21.623864 C.3        1 MOL1         0.1018
      34    H16     14.368552   16.810169   21.570885 H          1 MOL1         0.0783
      35    C11     15.564688   18.099662   20.273600 C.3        1 MOL1         0.1043
      36    H17     16.588229   18.486397   20.288214 H          1 MOL1         0.0783
      37    O9      14.643829   19.213506   20.137786 O.3        1 MOL1        -0.3740
      38    C12     15.456379   17.206682   19.010282 C.3        1 MOL1         0.0138
      39    H18     16.445314   16.780838   18.800062 H          1 MOL1         0.0794
      40    H19     15.197730   17.842624   18.153045 H          1 MOL1         0.0794
      41    O10     14.501401   16.148251   19.142040 O.3        1 MOL1        -0.5486
      42    H20     14.947014   15.425494   19.641352 H          1 MOL1         0.3769
      43    C13     18.656099   23.784433   20.381583 C.3        1 MOL1         0.2972
      44    H21     19.102025   24.698380   19.968640 H          1 MOL1         0.0751
      45    O11     19.637949   22.973729   21.056027 O.3        1 MOL1        -0.3740
      46    C14     17.515410   24.117634   21.382056 C.3        1 MOL1         0.1003
      47    H22     16.753448   24.681269   20.828224 H          1 MOL1         0.0783
      48    O12     17.986497   24.921924   22.474405 O.3        1 MOL1        -0.5519
      49    H23     18.729103   24.426605   22.904911 H          1 MOL1         0.3769
      50    C15     16.855534   22.819320   21.910855 C.3        1 MOL1         0.1053
      51    H24     17.597238   22.276992   22.514313 H          1 MOL1         0.0783
      52    O13     15.719507   23.148188   22.717844 O.3        1 MOL1        -0.5519
      53    H25     16.020701   23.883302   23.297092 H          1 MOL1         0.3769
      54    C16     16.422567   21.904321   20.739244 C.3        1 MOL1         0.1018
      55    H26     15.567791   22.366864   20.228487 H          1 MOL1         0.0783
      56    C17     17.575151   21.689916   19.720336 C.3        1 MOL1         0.1043
      57    H27     18.372058   21.123026   20.216378 H          1 MOL1         0.0783
      58    O14     18.087892   22.984920   19.318873 O.3        1 MOL1        -0.3740
      59    C18     17.185397   20.890540   18.449853 C.3        1 MOL1         0.0138
      60    H28     17.356890   19.824619   18.644752 H          1 MOL1         0.0794
      61    H29     17.865343   21.175779   17.636097 H          1 MOL1         0.0794
      62    O15     15.825275   21.090343   18.046914 O.3        1 MOL1        -0.5486
      63    H30     15.264501   20.556059   18.655865 H          1 MOL1         0.3769
      64    C19     23.566281   22.814489   22.273189 C.3        1 MOL1         0.2972
      65    H31     24.601940   22.993002   22.589642 H          1 MOL1         0.0751
      66    O16     23.302637   21.415147   22.067142 O.3        1 MOL1        -0.3740
      67    C20     22.587042   23.331602   23.353562 C.3        1 MOL1         0.1003
      68    H32     22.734082   24.415801   23.442912 H          1 MOL1         0.0783
      69    O17     22.855121   22.711116   24.620972 O.3        1 MOL1        -0.5519
      70    H33     23.266716   21.831593   24.432160 H          1 MOL1         0.3769
      71    C21     21.122558   23.080910   22.927479 C.3        1 MOL1         0.1053
      72    H34     20.951618   21.996243   22.926679 H          1 MOL1         0.0783
      73    O18     20.245174   23.702422   23.872087 O.3        1 MOL1        -0.5519
      74    H35     20.596495   23.436673   24.751349 H          1 MOL1         0.3769
      75    C22     20.842091   23.625798   21.502788 C.3        1 MOL1         0.1018
      76    H36     20.722530   24.715798   21.562061 H          1 MOL1         0.0783
      77    C23     21.959811   23.262005   20.480796 C.3        1 MOL1         0.1043
      78    H37     21.862017   22.193435   20.250047 H          1 MOL1         0.0783
      79    O19     23.277758   23.505186   21.040319 O.3        1 MOL1        -0.3740
      80    C24     21.850128   24.027284   19.140475 C.3        1 MOL1         0.0138
      81    H38     20.979976   23.644250   18.590319 H          1 MOL1         0.0794
      82    H39     22.740419   23.805683   18.536689 H          1 MOL1         0.0794
      83    O20     21.719056   25.440965   19.334704 O.3        1 MOL1        -0.5486
      84    H40     21.740190   25.866729   18.449959 H          1 MOL1         0.3769
      85    C25     25.106080   17.715161   21.598548 C.3        1 MOL1         0.2972
      86    H41     25.799882   16.876546   21.457127 H          1 MOL1         0.0751
      87    O21     23.735924   17.264621   21.633377 O.3        1 MOL1        -0.3740
      88    C26     25.430960   18.446153   22.926647 C.3        1 MOL1         0.1003
      89    H42     26.433584   18.879144   22.818439 H          1 MOL1         0.0783
      90    O22     25.451977   17.530267   24.031917 O.3        1 MOL1        -0.5519
      91    H43     24.517558   17.241724   24.217298 H          1 MOL1         0.3769
      92    C27     24.436656   19.612499   23.146128 C.3        1 MOL1         0.1053
      93    H44     23.425137   19.195368   23.220486 H          1 MOL1         0.0783
      94    O23     24.749781   20.340397   24.340374 O.3        1 MOL1        -0.5519
      95    H45     24.489845   19.742930   25.091065 H          1 MOL1         0.3769
      96    C28     24.451534   20.562018   21.926187 C.3        1 MOL1         0.1018
      97    H46     25.394977   21.123298   21.923657 H          1 MOL1         0.0783
      98    C29     24.294752   19.791703   20.584936 C.3        1 MOL1         0.1043
      99    H47     23.276722   19.393213   20.559325 H          1 MOL1         0.0783
     100    O24     25.231731   18.682167   20.527799 O.3        1 MOL1        -0.3740
     101    C30     24.456104   20.663612   19.312346 C.3        1 MOL1         0.0138
     102    H48     23.471781   21.066299   19.041654 H          1 MOL1         0.0794
     103    H49     24.774156   20.018939   18.482070 H          1 MOL1         0.0794
     104    O25     25.380828   21.744335   19.478814 O.3        1 MOL1        -0.5486
     105    H50     24.911545   22.447026   19.984818 H          1 MOL1         0.3769
     106    C31     21.190462   14.198195   20.419524 C.3        1 MOL1         0.2972
     107    H51     20.745637   13.319967   19.934570 H          1 MOL1         0.0751
     108    O26     20.202146   14.964047   21.133552 O.3        1 MOL1        -0.3740
     109    C32     22.300494   13.772849   21.414789 C.3        1 MOL1         0.1003
     110    H52     23.036087   13.192078   20.843419 H          1 MOL1         0.0783
     111    O27     21.762899   12.946472   22.460845 O.3        1 MOL1        -0.5519
     112    H53     21.012525   13.445465   22.872768 H          1 MOL1         0.3769
     113    C33     23.035803   14.998344   22.017919 C.3        1 MOL1         0.1053
     114    H54     22.357755   15.494603   22.726681 H          1 MOL1         0.0783
     115    O28     24.207135   14.537281   22.699518 O.3        1 MOL1        -0.5519
     116    H55     23.881397   13.941921   23.407848 H          1 MOL1         0.3769
     117    C34     23.442409   16.036090   20.937650 C.3        1 MOL1         0.1018
     118    H56     24.316235   15.650678   20.396477 H          1 MOL1         0.0783
     119    C35     22.296193   16.318863   19.925606 C.3        1 MOL1         0.1043
     120    H57     21.495176   16.850801   20.453416 H          1 MOL1         0.0783
     121    O29     21.787494   15.059031   19.428113 O.3        1 MOL1        -0.3740
     122    C36     22.689475   17.190550   18.703866 C.3        1 MOL1         0.0138
     123    H58     22.485625   18.240681   18.941828 H          1 MOL1         0.0794
     124    H59     22.030698   16.929964   17.864775 H          1 MOL1         0.0794
     125    O30     24.059356   17.040347   18.312445 O.3        1 MOL1        -0.5486
     126    H60     24.606349   17.498035   18.992850 H          1 MOL1         0.3769
     127    C1      22.511414   18.051195   25.399695 C.2        1 MOL1         0.6173
     128    O1      23.199676   18.732378   26.135673 O.co2      1 MOL1        -0.6755
     129    O2      22.862996   16.959796   24.992969 O.co2      1 MOL1        -0.6755
     130    C2      21.276924   18.673141   24.851371 C.2        1 MOL1        -0.1504
     131    H1      21.049028   19.673525   25.211518 H          1 MOL1         0.0814
     132    C3      20.482309   18.076981   23.934622 C.2        1 MOL1        -0.1394
     133    H2      20.714963   17.080514   23.560620 H          1 MOL1         0.0817
     134    C4      19.252377   18.729657   23.341511 C.3        1 MOL1        -0.1849
     135    H3      19.190757   19.783513   23.644894 H          1 MOL1         0.0736
     136    H4      18.358437   18.237342   23.744122 H          1 MOL1         0.0736
     137    C5      19.231411   18.642701   21.800869 C.3        1 MOL1        -0.1866
     138    H5      19.225530   17.591517   21.487381 H          1 MOL1         0.0738
     139    H6      18.300749   19.089188   21.439305 H          1 MOL1         0.0738
     140    C6      20.423380   19.368990   21.148588 C.3        1 MOL1        -0.2879
     141    H7      21.369606   18.950337   21.508773 H          1 MOL1         0.0750
     142    H8      20.391452   19.271304   20.056699 H          1 MOL1         0.0750
     143    H9      20.411703   20.434908   21.396895 H          1 MOL1         0.0750
@<TRIPOS>BOND
    1     1     2    1
    2     1     3    1
    3     1     4    1
    4     4     5    1
    5     4     6    1
    6     6     7    1
    7     4     8    1
    8     8     9    1
    9     8    10    1
   10    10    11    1
   11     8    12    1
   12    12    13    1
   13    12    14    1
   14    14    15    1
   15     1    16    1
   16    14    16    1
   17    14    17    1
   18    17    18    1
   19    17    19    1
   20    17    20    1
   21    20    21    1
   22    22    23    1
   23    22    24    1
   24    22    25    1
   25    25    26    1
   26    25    27    1
   27    27    28    1
   28    25    29    1
   29    29    30    1
   30    29    31    1
   31    31    32    1
   32     3    33    1
   33    29    33    1
   34    33    34    1
   35    33    35    1
   36    35    36    1
   37    22    37    1
   38    35    37    1
   39    35    38    1
   40    38    39    1
   41    38    40    1
   42    38    41    1
   43    41    42    1
   44    43    44    1
   45    43    45    1
   46    43    46    1
   47    46    47    1
   48    46    48    1
   49    48    49    1
   50    46    50    1
   51    50    51    1
   52    50    52    1
   53    52    53    1
   54    24    54    1
   55    50    54    1
   56    54    55    1
   57    54    56    1
   58    56    57    1
   59    43    58    1
   60    56    58    1
   61    56    59    1
   62    59    60    1
   63    59    61    1
   64    59    62    1
   65    62    63    1
   66    64    65    1
   67    64    66    1
   68    64    67    1
   69    67    68    1
   70    67    69    1
   71    69    70    1
   72    67    71    1
   73    71    72    1
   74    71    73    1
   75    73    74    1
   76    45    75    1
   77    71    75    1
   78    75    76    1
   79    75    77    1
   80    77    78    1
   81    64    79    1
   82    77    79    1
   83    77    80    1
   84    80    81    1
   85    80    82    1
   86    80    83    1
   87    83    84    1
   88    85    86    1
   89    85    87    1
   90    85    88    1
   91    88    89    1
   92    88    90    1
   93    90    91    1
   94    88    92    1
   95    92    93    1
   96    92    94    1
   97    94    95    1
   98    66    96    1
   99    92    96    1
  100    96    97    1
  101    96    98    1
  102    98    99    1
  103    85   100    1
  104    98   100    1
  105    98   101    1
  106   101   102    1
  107   101   103    1
  108   101   104    1
  109   104   105    1
  110   106   107    1
  111    12   108    1
  112   106   108    1
  113   106   109    1
  114   109   110    1
  115   109   111    1
  116   111   112    1
  117   109   113    1
  118   113   114    1
  119   113   115    1
  120   115   116    1
  121    87   117    1
  122   113   117    1
  123   117   118    1
  124   117   119    1
  125   119   120    1
  126   106   121    1
  127   119   121    1
  128   119   122    1
  129   122   123    1
  130   122   124    1
  131   122   125    1
  132   125   126    1
  133   127   128    1
  134   127   129    2
  135   127   130    1
  136   130   131    1
  137   130   132    2
  138   132   133    1
  139   132   134    1
  140   134   135    1
  141   134   136    1
  142   134   137    1
  143   137   138    1
  144   137   139    1
  145   137   140    1
  146   140   141    1
  147   140   142    1
  148   140   143    1
@<TRIPOS>SUBSTRUCTURE
       1 MOL1            1 RESIDUE      1      MOL     
       2 MOL1          143 RESIDUE      1      MOL     
@<SCITEGIC>MOL_PROPERTY
feprocess Rank
SciTegic.value.IntegerValue
112

@<SCITEGIC>MOL_PROPERTY
Conf_Id
SciTegic.value.IntegerValue
532

@<SCITEGIC>MOL_PROPERTY
Probability
SciTegic.value.DoubleValue
0.00

@<SCITEGIC>MOL_PROPERTY
G
SciTegic.value.DoubleValue
501.967

@<SCITEGIC>MOL_PROPERTY
E
SciTegic.value.DoubleValue
318.617

@<SCITEGIC>MOL_PROPERTY
-TS
SciTegic.value.DoubleValue
183.350

@<SCITEGIC>MOL_PROPERTY
U+W
SciTegic.value.DoubleValue
192.529

@<SCITEGIC>MOL_PROPERTY
U
SciTegic.value.DoubleValue
270.349

@<SCITEGIC>MOL_PROPERTY
W
SciTegic.value.DoubleValue
-77.820

@<SCITEGIC>MOL_PROPERTY
W(PB)
SciTegic.value.DoubleValue
-83.804

@<SCITEGIC>MOL_PROPERTY
W(SA)
SciTegic.value.DoubleValue
5.985

@<SCITEGIC>MOL_PROPERTY
Valence
SciTegic.value.DoubleValue
151.413

@<SCITEGIC>MOL_PROPERTY
Coulomb
SciTegic.value.DoubleValue
144.813

@<SCITEGIC>MOL_PROPERTY
VdW
SciTegic.value.DoubleValue
-25.877

@<SCITEGIC>MOL_PROPERTY
VdW6
SciTegic.value.DoubleValue
-182.470

@<SCITEGIC>MOL_PROPERTY
VdW12
SciTegic.value.DoubleValue
156.593

@<SCITEGIC>MOL_PROPERTY
Bond
SciTegic.value.DoubleValue
4.903

@<SCITEGIC>MOL_PROPERTY
Angle
SciTegic.value.DoubleValue
14.017

@<SCITEGIC>MOL_PROPERTY
Pdih
SciTegic.value.DoubleValue
132.447

@<SCITEGIC>MOL_PROPERTY
Idih
SciTegic.value.DoubleValue
0.045

@<SCITEGIC>MOL_PROPERTY
Tether
SciTegic.value.DoubleValue
0.000

@<TRIPOS>MOLECULE
CD_guest-s19_fast_vm2_rndm.mol2 : feprocess host+ligand conformer 113
         143         148           2
SMALL
USER_CHARGES
 
@<TRIPOS>ATOM
       1    C1      16.333590   15.208500   22.063464 C.3        1 MOL1         0.2972
       2    H1      15.289519   15.082709   22.378530 H          1 MOL1         0.0751
       3    O1      16.639554   16.583357   21.763379 O.3        1 MOL1        -0.3740
       4    C2      17.284500   14.727967   23.184476 C.3        1 MOL1         0.1003
       5    H2      17.109110   13.653976   23.329125 H          1 MOL1         0.0783
       6    O2      17.019810   15.418492   24.415176 O.3        1 MOL1        -0.5519
       7    H3      16.568986   16.266416   24.180865 H          1 MOL1         0.3769
       8    C3      18.757974   14.918411   22.764177 C.3        1 MOL1         0.1053
       9    H4      18.954992   15.996761   22.696113 H          1 MOL1         0.0783
      10    O3      19.603102   14.335979   23.760894 O.3        1 MOL1        -0.5519
      11    H5      19.249163   14.675576   24.613350 H          1 MOL1         0.3769
      12    C4      19.043446   14.281859   21.379135 C.3        1 MOL1         0.1018
      13    H6      19.150569   13.196131   21.503429 H          1 MOL1         0.0783
      14    C5      17.942952   14.595089   20.322560 C.3        1 MOL1         0.1043
      15    H7      18.071676   15.640367   20.015504 H          1 MOL1         0.0783
      16    O4      16.612774   14.430324   20.881369 O.3        1 MOL1        -0.3740
      17    C6      18.047674   13.731654   19.042883 C.3        1 MOL1         0.0138
      18    H8      18.935345   14.049521   18.479454 H          1 MOL1         0.0794
      19    H9      17.171847   13.932801   18.411282 H          1 MOL1         0.0794
      20    O5      18.136664   12.333085   19.341173 O.3        1 MOL1        -0.5486
      21    H10     18.114406   11.844355   18.489494 H          1 MOL1         0.3769
      22    C7      14.745467   20.261074   21.233558 C.3        1 MOL1         0.2972
      23    H11     14.006568   21.046814   21.031576 H          1 MOL1         0.0751
      24    O6      16.054751   20.823923   21.472855 O.3        1 MOL1        -0.3740
      25    C8      14.310626   19.451233   22.482807 C.3        1 MOL1         0.1003
      26    H12     13.357010   18.967939   22.234598 H          1 MOL1         0.0783
      27    O7      14.096889   20.310782   23.613787 O.3        1 MOL1        -0.5519
      28    H13     14.982033   20.587145   23.968683 H          1 MOL1         0.3769
      29    C9      15.341193   18.332164   22.772515 C.3        1 MOL1         0.1053
      30    H14     16.316566   18.794059   22.958747 H          1 MOL1         0.0783
      31    O8      14.953472   17.557042   23.911567 O.3        1 MOL1        -0.5519
      32    H15     15.168929   18.137540   24.688729 H          1 MOL1         0.3769
      33    C10     15.506839   17.436610   21.526430 C.3        1 MOL1         0.1018
      34    H16     14.581919   16.867148   21.365546 H          1 MOL1         0.0783
      35    C11     15.822011   18.283781   20.263630 C.3        1 MOL1         0.1043
      36    H17     16.810707   18.740058   20.405277 H          1 MOL1         0.0783
      37    O9      14.831461   19.337241   20.121574 O.3        1 MOL1        -0.3740
      38    C12     15.882811   17.464419   18.946579 C.3        1 MOL1         0.0138
      39    H18     16.916842   17.130276   18.794327 H          1 MOL1         0.0794
      40    H19     15.637184   18.127952   18.106771 H          1 MOL1         0.0794
      41    O10     15.009799   16.327935   18.943250 O.3        1 MOL1        -0.5486
      42    H20     15.391853   15.664137   19.563148 H          1 MOL1         0.3769
      43    C13     18.603039   23.911589   20.308288 C.3        1 MOL1         0.2972
      44    H21     19.069581   24.803549   19.870865 H          1 MOL1         0.0751
      45    O11     19.590693   23.030766   20.885927 O.3        1 MOL1        -0.3740
      46    C14     17.541841   24.298201   21.372579 C.3        1 MOL1         0.1003
      47    H22     16.756351   24.864528   20.856063 H          1 MOL1         0.0783
      48    O12     18.111262   25.131126   22.394144 O.3        1 MOL1        -0.5519
      49    H23     18.688116   24.547468   22.946778 H          1 MOL1         0.3769
      50    C15     16.892067   23.019875   21.964556 C.3        1 MOL1         0.1053
      51    H24     17.668315   22.469935   22.512472 H          1 MOL1         0.0783
      52    O13     15.830668   23.365858   22.860361 O.3        1 MOL1        -0.5519
      53    H25     15.888955   22.702072   23.596976 H          1 MOL1         0.3769
      54    C16     16.340732   22.094115   20.844914 C.3        1 MOL1         0.1018
      55    H26     15.433786   22.561298   20.439791 H          1 MOL1         0.0783
      56    C17     17.375322   21.880920   19.696852 C.3        1 MOL1         0.1043
      57    H27     18.189023   21.253417   20.083730 H          1 MOL1         0.0783
      58    O14     17.912014   23.164278   19.286467 O.3        1 MOL1        -0.3740
      59    C18     16.836074   21.181788   18.422422 C.3        1 MOL1         0.0138
      60    H28     16.972763   20.100401   18.531444 H          1 MOL1         0.0794
      61    H29     17.456087   21.488517   17.569399 H          1 MOL1         0.0794
      62    O15     15.460479   21.471338   18.152348 O.3        1 MOL1        -0.5486
      63    H30     14.931578   20.849619   18.703665 H          1 MOL1         0.3769
      64    C19     23.413922   22.708857   22.351708 C.3        1 MOL1         0.2972
      65    H31     24.429107   22.831564   22.751128 H          1 MOL1         0.0751
      66    O16     23.143250   21.343902   21.984936 O.3        1 MOL1        -0.3740
      67    C20     22.372066   23.136359   23.410437 C.3        1 MOL1         0.1003
      68    H32     22.523283   24.204793   23.612311 H          1 MOL1         0.0783
      69    O17     22.547228   22.394522   24.628318 O.3        1 MOL1        -0.5519
      70    H33     23.098297   21.603430   24.409779 H          1 MOL1         0.3769
      71    C21     20.938951   22.949292   22.864465 C.3        1 MOL1         0.1053
      72    H34     20.760832   21.872957   22.738305 H          1 MOL1         0.0783
      73    O18     20.011645   23.482252   23.814200 O.3        1 MOL1        -0.5519
      74    H35     20.296286   23.108242   24.678121 H          1 MOL1         0.3769
      75    C22     20.755965   23.633933   21.483802 C.3        1 MOL1         0.1018
      76    H36     20.632469   24.714033   21.637279 H          1 MOL1         0.0783
      77    C23     21.940526   23.366675   20.508878 C.3        1 MOL1         0.1043
      78    H37     21.849553   22.331471   20.157198 H          1 MOL1         0.0783
      79    O19     23.219263   23.524887   21.178399 O.3        1 MOL1        -0.3740
      80    C24     21.928534   24.272791   19.254715 C.3        1 MOL1         0.0138
      81    H38     21.090306   23.969078   18.613203 H          1 MOL1         0.0794
      82    H39     22.852695   24.098478   18.687295 H          1 MOL1         0.0794
      83    O20     21.804679   25.659858   19.591675 O.3        1 MOL1        -0.5486
      84    H40     21.886518   26.177311   18.760878 H          1 MOL1         0.3769
      85    C25     25.046434   17.673688   21.553537 C.3        1 MOL1         0.2972
      86    H41     25.788370   16.878883   21.403729 H          1 MOL1         0.0751
      87    O21     23.712248   17.137515   21.646596 O.3        1 MOL1        -0.3740
      88    C26     25.340096   18.418293   22.880338 C.3        1 MOL1         0.1003
      89    H42     26.352327   18.837219   22.810272 H          1 MOL1         0.0783
      90    O22     25.278308   17.504864   23.986570 O.3        1 MOL1        -0.5519
      91    H43     24.579442   16.844426   23.765798 H          1 MOL1         0.3769
      92    C27     24.349835   19.588158   23.090561 C.3        1 MOL1         0.1053
      93    H44     23.348974   19.168584   23.247924 H          1 MOL1         0.0783
      94    O23     24.740447   20.349132   24.237404 O.3        1 MOL1        -0.5519
      95    H45     24.930267   19.679615   24.932192 H          1 MOL1         0.3769
      96    C28     24.291581   20.494397   21.839249 C.3        1 MOL1         0.1018
      97    H46     25.226254   21.065927   21.765499 H          1 MOL1         0.0783
      98    C29     24.085540   19.677055   20.537303 C.3        1 MOL1         0.1043
      99    H47     23.086177   19.224542   20.579889 H          1 MOL1         0.0783
     100    O24     25.083979   18.627395   20.467289 O.3        1 MOL1        -0.3740
     101    C30     24.143562   20.521607   19.236311 C.3        1 MOL1         0.0138
     102    H48     23.128664   20.868164   19.003730 H          1 MOL1         0.0794
     103    H49     24.454156   19.871289   18.407669 H          1 MOL1         0.0794
     104    O25     25.021312   21.650517   19.329812 O.3        1 MOL1        -0.5486
     105    H50     24.590152   22.306535   19.924863 H          1 MOL1         0.3769
     106    C31     21.271486   14.035020   20.352688 C.3        1 MOL1         0.2972
     107    H51     20.834691   13.140709   19.889913 H          1 MOL1         0.0751
     108    O26     20.254783   14.897591   20.902286 O.3        1 MOL1        -0.3740
     109    C32     22.292655   13.657700   21.459792 C.3        1 MOL1         0.1003
     110    H52     23.103739   13.099694   20.974097 H          1 MOL1         0.0783
     111    O27     21.705607   12.829802   22.474799 O.3        1 MOL1        -0.5519
     112    H53     20.989188   13.362179   22.904675 H          1 MOL1         0.3769
     113    C33     22.902590   14.935646   22.084248 C.3        1 MOL1         0.1053
     114    H54     22.099916   15.470880   22.609050 H          1 MOL1         0.0783
     115    O28     23.932429   14.575945   23.011406 O.3        1 MOL1        -0.5519
     116    H55     23.552411   13.847667   23.550538 H          1 MOL1         0.3769
     117    C34     23.481595   15.873968   20.994463 C.3        1 MOL1         0.1018
     118    H56     24.411025   15.427207   20.617996 H          1 MOL1         0.0783
     119    C35     22.490116   16.090793   19.812574 C.3        1 MOL1         0.1043
     120    H57     21.652058   16.699282   20.177343 H          1 MOL1         0.0783
     121    O29     21.991325   14.804081   19.365338 O.3        1 MOL1        -0.3740
     122    C36     23.073094   16.828513   18.579286 C.3        1 MOL1         0.0138
     123    H58     22.906826   17.904613   18.704815 H          1 MOL1         0.0794
     124    H59     22.502296   16.525880   17.691203 H          1 MOL1         0.0794
     125    O30     24.467397   16.578215   18.371524 O.3        1 MOL1        -0.5486
     126    H60     24.955079   17.177842   18.982451 H          1 MOL1         0.3769
     127    C1      17.041604   20.284232   24.943939 C.2        1 MOL1         0.6173
     128    O1      16.507246   21.355748   24.729096 O.co2      1 MOL1        -0.6755
     129    O2      16.466812   19.375657   25.515124 O.co2      1 MOL1        -0.6755
     130    C2      18.359668   20.032818   24.298105 C.2        1 MOL1        -0.1504
     131    H1      18.797674   20.876337   23.772853 H          1 MOL1         0.0814
     132    C3      18.990455   18.836521   24.313892 C.2        1 MOL1        -0.1394
     133    H2      18.547544   17.983417   24.827314 H          1 MOL1         0.0817
     134    C4      20.316182   18.572579   23.628096 C.3        1 MOL1        -0.1849
     135    H3      20.823684   19.517323   23.392375 H          1 MOL1         0.0736
     136    H4      20.133145   18.073377   22.667856 H          1 MOL1         0.0736
     137    C5      21.247595   17.689967   24.486920 C.3        1 MOL1        -0.1866
     138    H5      20.732209   16.759985   24.761070 H          1 MOL1         0.0738
     139    H6      22.119568   17.395929   23.891294 H          1 MOL1         0.0738
     140    C6      21.729770   18.414235   25.761045 C.3        1 MOL1        -0.2879
     141    H7      20.885329   18.654316   26.419864 H          1 MOL1         0.0750
     142    H8      22.429818   17.782781   26.322746 H          1 MOL1         0.0750
     143    H9      22.242214   19.351838   25.511179 H          1 MOL1         0.0750
@<TRIPOS>BOND
    1     1     2    1
    2     1     3    1
    3     1     4    1
    4     4     5    1
    5     4     6    1
    6     6     7    1
    7     4     8    1
    8     8     9    1
    9     8    10    1
   10    10    11    1
   11     8    12    1
   12    12    13    1
   13    12    14    1
   14    14    15    1
   15     1    16    1
   16    14    16    1
   17    14    17    1
   18    17    18    1
   19    17    19    1
   20    17    20    1
   21    20    21    1
   22    22    23    1
   23    22    24    1
   24    22    25    1
   25    25    26    1
   26    25    27    1
   27    27    28    1
   28    25    29    1
   29    29    30    1
   30    29    31    1
   31    31    32    1
   32     3    33    1
   33    29    33    1
   34    33    34    1
   35    33    35    1
   36    35    36    1
   37    22    37    1
   38    35    37    1
   39    35    38    1
   40    38    39    1
   41    38    40    1
   42    38    41    1
   43    41    42    1
   44    43    44    1
   45    43    45    1
   46    43    46    1
   47    46    47    1
   48    46    48    1
   49    48    49    1
   50    46    50    1
   51    50    51    1
   52    50    52    1
   53    52    53    1
   54    24    54    1
   55    50    54    1
   56    54    55    1
   57    54    56    1
   58    56    57    1
   59    43    58    1
   60    56    58    1
   61    56    59    1
   62    59    60    1
   63    59    61    1
   64    59    62    1
   65    62    63    1
   66    64    65    1
   67    64    66    1
   68    64    67    1
   69    67    68    1
   70    67    69    1
   71    69    70    1
   72    67    71    1
   73    71    72    1
   74    71    73    1
   75    73    74    1
   76    45    75    1
   77    71    75    1
   78    75    76    1
   79    75    77    1
   80    77    78    1
   81    64    79    1
   82    77    79    1
   83    77    80    1
   84    80    81    1
   85    80    82    1
   86    80    83    1
   87    83    84    1
   88    85    86    1
   89    85    87    1
   90    85    88    1
   91    88    89    1
   92    88    90    1
   93    90    91    1
   94    88    92    1
   95    92    93    1
   96    92    94    1
   97    94    95    1
   98    66    96    1
   99    92    96    1
  100    96    97    1
  101    96    98    1
  102    98    99    1
  103    85   100    1
  104    98   100    1
  105    98   101    1
  106   101   102    1
  107   101   103    1
  108   101   104    1
  109   104   105    1
  110   106   107    1
  111    12   108    1
  112   106   108    1
  113   106   109    1
  114   109   110    1
  115   109   111    1
  116   111   112    1
  117   109   113    1
  118   113   114    1
  119   113   115    1
  120   115   116    1
  121    87   117    1
  122   113   117    1
  123   117   118    1
  124   117   119    1
  125   119   120    1
  126   106   121    1
  127   119   121    1
  128   119   122    1
  129   122   123    1
  130   122   124    1
  131   122   125    1
  132   125   126    1
  133   127   128    1
  134   127   129    2
  135   127   130    1
  136   130   131    1
  137   130   132    2
  138   132   133    1
  139   132   134    1
  140   134   135    1
  141   134   136    1
  142   134   137    1
  143   137   138    1
  144   137   139    1
  145   137   140    1
  146   140   141    1
  147   140   142    1
  148   140   143    1
@<TRIPOS>SUBSTRUCTURE
       1 MOL1            1 RESIDUE      1      MOL     
       2 MOL1          143 RESIDUE      1      MOL     
@<SCITEGIC>MOL_PROPERTY
feprocess Rank
SciTegic.value.IntegerValue
113

@<SCITEGIC>MOL_PROPERTY
Conf_Id
SciTegic.value.IntegerValue
972

@<SCITEGIC>MOL_PROPERTY
Probability
SciTegic.value.DoubleValue
0.00

@<SCITEGIC>MOL_PROPERTY
G
SciTegic.value.DoubleValue
501.968

@<SCITEGIC>MOL_PROPERTY
E
SciTegic.value.DoubleValue
318.695

@<SCITEGIC>MOL_PROPERTY
-TS
SciTegic.value.DoubleValue
183.273

@<SCITEGIC>MOL_PROPERTY
U+W
SciTegic.value.DoubleValue
192.607

@<SCITEGIC>MOL_PROPERTY
U
SciTegic.value.DoubleValue
268.019

@<SCITEGIC>MOL_PROPERTY
W
SciTegic.value.DoubleValue
-75.412

@<SCITEGIC>MOL_PROPERTY
W(PB)
SciTegic.value.DoubleValue
-81.464

@<SCITEGIC>MOL_PROPERTY
W(SA)
SciTegic.value.DoubleValue
6.052

@<SCITEGIC>MOL_PROPERTY
Valence
SciTegic.value.DoubleValue
151.741

@<SCITEGIC>MOL_PROPERTY
Coulomb
SciTegic.value.DoubleValue
136.817

@<SCITEGIC>MOL_PROPERTY
VdW
SciTegic.value.DoubleValue
-20.540

@<SCITEGIC>MOL_PROPERTY
VdW6
SciTegic.value.DoubleValue
-179.303

@<SCITEGIC>MOL_PROPERTY
VdW12
SciTegic.value.DoubleValue
158.763

@<SCITEGIC>MOL_PROPERTY
Bond
SciTegic.value.DoubleValue
5.104

@<SCITEGIC>MOL_PROPERTY
Angle
SciTegic.value.DoubleValue
14.960

@<SCITEGIC>MOL_PROPERTY
Pdih
SciTegic.value.DoubleValue
131.617

@<SCITEGIC>MOL_PROPERTY
Idih
SciTegic.value.DoubleValue
0.061

@<SCITEGIC>MOL_PROPERTY
Tether
SciTegic.value.DoubleValue
0.000

@<TRIPOS>MOLECULE
CD_guest-s19_fast_vm2_rndm.mol2 : feprocess host+ligand conformer 114
         143         148           2
SMALL
USER_CHARGES
 
@<TRIPOS>ATOM
       1    C1      16.341603   15.388005   20.749363 C.3        1 MOL1         0.2972
       2    H1      15.292257   15.251626   20.457810 H          1 MOL1         0.0751
       3    O1      16.588855   16.723752   21.230319 O.3        1 MOL1        -0.3740
       4    C2      16.703594   14.386347   21.873040 C.3        1 MOL1         0.1003
       5    H2      16.542634   13.376932   21.472525 H          1 MOL1         0.0783
       6    O2      15.858694   14.574818   23.019108 O.3        1 MOL1        -0.5519
       7    H3      15.494697   15.493723   22.961879 H          1 MOL1         0.3769
       8    C3      18.192851   14.503596   22.274071 C.3        1 MOL1         0.1053
       9    H4      18.343104   15.482419   22.749584 H          1 MOL1         0.0783
      10    O3      18.492861   13.456084   23.202079 O.3        1 MOL1        -0.5519
      11    H5      17.714039   13.429041   23.804239 H          1 MOL1         0.3769
      12    C4      19.113499   14.415780   21.026834 C.3        1 MOL1         0.1018
      13    H6      19.124842   13.381848   20.658939 H          1 MOL1         0.0783
      14    C5      18.630306   15.355134   19.886451 C.3        1 MOL1         0.1043
      15    H7      18.783928   16.388697   20.213655 H          1 MOL1         0.0783
      16    O4      17.218044   15.148175   19.626586 O.3        1 MOL1        -0.3740
      17    C6      19.414900   15.186572   18.561906 C.3        1 MOL1         0.0138
      18    H8      20.399691   15.658196   18.678540 H          1 MOL1         0.0794
      19    H9      18.886667   15.734288   17.770110 H          1 MOL1         0.0794
      20    O5      19.580494   13.814157   18.186419 O.3        1 MOL1        -0.5486
      21    H10     20.242858   13.422277   18.795764 H          1 MOL1         0.3769
      22    C7      14.641945   20.484140   21.216169 C.3        1 MOL1         0.2972
      23    H11     13.903090   21.253476   20.957837 H          1 MOL1         0.0751
      24    O6      15.686272   21.039323   22.035990 O.3        1 MOL1        -0.3740
      25    C8      13.951691   19.332396   22.006224 C.3        1 MOL1         0.1003
      26    H12     13.100973   19.000274   21.397439 H          1 MOL1         0.0783
      27    O7      13.464396   19.791472   23.276795 O.3        1 MOL1        -0.5519
      28    H13     14.265159   19.955400   23.846523 H          1 MOL1         0.3769
      29    C9      14.882322   18.110956   22.221292 C.3        1 MOL1         0.1053
      30    H14     15.656393   18.388339   22.947419 H          1 MOL1         0.0783
      31    O8      14.116271   17.013046   22.728753 O.3        1 MOL1        -0.5519
      32    H15     13.593995   17.388046   23.472530 H          1 MOL1         0.3769
      33    C10     15.582931   17.702679   20.906236 C.3        1 MOL1         0.1018
      34    H16     14.831263   17.303048   20.212544 H          1 MOL1         0.0783
      35    C11     16.265294   18.926763   20.246499 C.3        1 MOL1         0.1043
      36    H17     17.021927   19.327294   20.930919 H          1 MOL1         0.0783
      37    O9      15.244950   19.927056   20.022585 O.3        1 MOL1        -0.3740
      38    C12     16.982356   18.623504   18.906095 C.3        1 MOL1         0.0138
      39    H18     18.002027   18.283447   19.129021 H          1 MOL1         0.0794
      40    H19     17.074551   19.559254   18.339074 H          1 MOL1         0.0794
      41    O10     16.310461   17.633394   18.118408 O.3        1 MOL1        -0.5486
      42    H20     16.491678   16.759278   18.536048 H          1 MOL1         0.3769
      43    C13     18.368349   24.148445   21.859609 C.3        1 MOL1         0.2972
      44    H21     18.921389   25.096057   21.821971 H          1 MOL1         0.0751
      45    O11     19.257241   23.014985   21.766678 O.3        1 MOL1        -0.3740
      46    C14     17.573008   24.071561   23.180288 C.3        1 MOL1         0.1003
      47    H22     16.847380   24.894882   23.187311 H          1 MOL1         0.0783
      48    O12     18.477339   24.222599   24.287451 O.3        1 MOL1        -0.5519
      49    H23     19.369655   23.947190   23.966667 H          1 MOL1         0.3769
      50    C15     16.788026   22.741329   23.254659 C.3        1 MOL1         0.1053
      51    H24     17.533618   21.945962   23.350894 H          1 MOL1         0.0783
      52    O13     15.923608   22.725690   24.397399 O.3        1 MOL1        -0.5519
      53    H25     15.736382   21.768376   24.582890 H          1 MOL1         0.3769
      54    C16     15.942275   22.463904   21.978841 C.3        1 MOL1         0.1018
      55    H26     15.006605   23.031258   22.062429 H          1 MOL1         0.0783
      56    C17     16.675030   22.835903   20.645368 C.3        1 MOL1         0.1043
      57    H27     17.364612   22.017401   20.409315 H          1 MOL1         0.0783
      58    O14     17.428887   24.069931   20.775301 O.3        1 MOL1        -0.3740
      59    C18     15.744232   23.050415   19.422450 C.3        1 MOL1         0.0138
      60    H28     15.404987   22.084687   19.035626 H          1 MOL1         0.0794
      61    H29     16.332185   23.514580   18.619002 H          1 MOL1         0.0794
      62    O15     14.614024   23.872571   19.738309 O.3        1 MOL1        -0.5486
      63    H30     14.119156   24.031755   18.905127 H          1 MOL1         0.3769
      64    C19     23.285082   22.389163   20.635653 C.3        1 MOL1         0.2972
      65    H31     24.254127   22.572786   20.154000 H          1 MOL1         0.0751
      66    O16     23.235913   21.081630   21.238254 O.3        1 MOL1        -0.3740
      67    C20     23.030285   23.435503   21.755564 C.3        1 MOL1         0.1003
      68    H32     23.118898   24.429101   21.297416 H          1 MOL1         0.0783
      69    O17     24.007517   23.312729   22.802487 O.3        1 MOL1        -0.5519
      70    H33     24.114112   22.346759   22.994428 H          1 MOL1         0.3769
      71    C21     21.598598   23.309923   22.338334 C.3        1 MOL1         0.1053
      72    H34     21.526181   22.355706   22.878748 H          1 MOL1         0.0783
      73    O18     21.352664   24.399110   23.233350 O.3        1 MOL1        -0.5519
      74    H35     22.160112   24.458985   23.791287 H          1 MOL1         0.3769
      75    C22     20.550329   23.304759   21.199397 C.3        1 MOL1         0.1018
      76    H36     20.563007   24.282308   20.698791 H          1 MOL1         0.0783
      77    C23     20.891740   22.214434   20.154653 C.3        1 MOL1         0.1043
      78    H37     20.873250   21.240202   20.654435 H          1 MOL1         0.0783
      79    O19     22.224395   22.475845   19.656800 O.3        1 MOL1        -0.3740
      80    C24     19.917616   22.138686   18.951513 C.3        1 MOL1         0.0138
      81    H38     19.088111   21.472990   19.219741 H          1 MOL1         0.0794
      82    H39     20.439869   21.667921   18.108028 H          1 MOL1         0.0794
      83    O20     19.405032   23.418963   18.560630 O.3        1 MOL1        -0.5486
      84    H40     18.809691   23.730212   19.281709 H          1 MOL1         0.3769
      85    C25     25.274109   17.485871   21.275672 C.3        1 MOL1         0.2972
      86    H41     25.987341   16.654641   21.216864 H          1 MOL1         0.0751
      87    O21     23.914978   17.018796   21.396671 O.3        1 MOL1        -0.3740
      88    C26     25.605400   18.426977   22.462786 C.3        1 MOL1         0.1003
      89    H42     26.586752   18.873601   22.255833 H          1 MOL1         0.0783
      90    O22     25.679653   17.713672   23.705255 O.3        1 MOL1        -0.5519
      91    H43     24.822867   17.230235   23.821316 H          1 MOL1         0.3769
      92    C27     24.572290   19.577554   22.540810 C.3        1 MOL1         0.1053
      93    H44     23.593837   19.146615   22.790982 H          1 MOL1         0.0783
      94    O23     24.963262   20.507138   23.557486 O.3        1 MOL1        -0.5519
      95    H45     25.208054   19.952455   24.331255 H          1 MOL1         0.3769
      96    C28     24.457564   20.316411   21.183021 C.3        1 MOL1         0.1018
      97    H46     25.337651   20.965489   21.083298 H          1 MOL1         0.0783
      98    C29     24.373305   19.352409   19.960636 C.3        1 MOL1         0.1043
      99    H47     23.369415   18.910604   19.939942 H          1 MOL1         0.0783
     100    O24     25.354146   18.289297   20.080541 O.3        1 MOL1        -0.3740
     101    C30     24.589213   20.051147   18.596346 C.3        1 MOL1         0.0138
     102    H48     23.703108   20.658395   18.369242 H          1 MOL1         0.0794
     103    H49     24.660739   19.280406   17.817299 H          1 MOL1         0.0794
     104    O25     25.761332   20.876320   18.588433 O.3        1 MOL1        -0.5486
     105    H50     25.872798   21.225641   17.677357 H          1 MOL1         0.3769
     106    C31     21.335092   13.869715   21.932433 C.3        1 MOL1         0.2972
     107    H51     20.824583   12.914314   22.108913 H          1 MOL1         0.0751
     108    O26     20.437987   14.859452   21.386961 O.3        1 MOL1        -0.3740
     109    C32     21.951791   14.403779   23.250343 C.3        1 MOL1         0.1003
     110    H52     22.694441   13.665727   23.580389 H          1 MOL1         0.0783
     111    O27     20.963062   14.563790   24.279899 O.3        1 MOL1        -0.5519
     112    H53     20.117530   14.190266   23.930866 H          1 MOL1         0.3769
     113    C33     22.683174   15.743276   23.011244 C.3        1 MOL1         0.1053
     114    H54     21.927074   16.495114   22.761843 H          1 MOL1         0.0783
     115    O28     23.350680   16.122859   24.216798 O.3        1 MOL1        -0.5519
     116    H55     22.678848   15.978648   24.921505 H          1 MOL1         0.3769
     117    C34     23.689537   15.663025   21.833391 C.3        1 MOL1         0.1018
     118    H56     24.609640   15.182115   22.188583 H          1 MOL1         0.0783
     119    C35     23.119180   14.900713   20.600397 C.3        1 MOL1         0.1043
     120    H57     22.405797   15.566114   20.097558 H          1 MOL1         0.0783
     121    O29     22.423601   13.692345   21.002235 O.3        1 MOL1        -0.3740
     122    C36     24.195639   14.522995   19.554005 C.3        1 MOL1         0.0138
     123    H58     24.604326   15.445272   19.118862 H          1 MOL1         0.0794
     124    H59     23.706640   13.971536   18.740057 H          1 MOL1         0.0794
     125    O30     25.253224   13.731226   20.111429 O.3        1 MOL1        -0.5486
     126    H60     25.793851   14.305356   20.691993 H          1 MOL1         0.3769
     127    C1      16.692869   19.664590   25.712564 C.2        1 MOL1         0.6173
     128    O1      16.600389   19.569846   26.920953 O.co2      1 MOL1        -0.6755
     129    O2      15.745459   19.936936   24.992389 O.co2      1 MOL1        -0.6755
     130    C2      18.048099   19.494418   25.114259 C.2        1 MOL1        -0.1504
     131    H1      18.867592   19.343069   25.812413 H          1 MOL1         0.0814
     132    C3      18.276524   19.540770   23.783706 C.2        1 MOL1        -0.1394
     133    H2      17.449241   19.685015   23.099858 H          1 MOL1         0.0817
     134    C4      19.626806   19.448428   23.112522 C.3        1 MOL1        -0.1849
     135    H3      20.438546   19.404114   23.850830 H          1 MOL1         0.0736
     136    H4      19.784784   20.361997   22.526858 H          1 MOL1         0.0736
     137    C5      19.690296   18.219810   22.186045 C.3        1 MOL1        -0.1866
     138    H5      19.846770   17.320288   22.794854 H          1 MOL1         0.0738
     139    H6      18.729201   18.089103   21.681913 H          1 MOL1         0.0738
     140    C6      20.793288   18.348850   21.119297 C.3        1 MOL1        -0.2879
     141    H7      20.530623   19.105156   20.371945 H          1 MOL1         0.0750
     142    H8      21.743292   18.633985   21.582760 H          1 MOL1         0.0750
     143    H9      20.942905   17.399749   20.593101 H          1 MOL1         0.0750
@<TRIPOS>BOND
    1     1     2    1
    2     1     3    1
    3     1     4    1
    4     4     5    1
    5     4     6    1
    6     6     7    1
    7     4     8    1
    8     8     9    1
    9     8    10    1
   10    10    11    1
   11     8    12    1
   12    12    13    1
   13    12    14    1
   14    14    15    1
   15     1    16    1
   16    14    16    1
   17    14    17    1
   18    17    18    1
   19    17    19    1
   20    17    20    1
   21    20    21    1
   22    22    23    1
   23    22    24    1
   24    22    25    1
   25    25    26    1
   26    25    27    1
   27    27    28    1
   28    25    29    1
   29    29    30    1
   30    29    31    1
   31    31    32    1
   32     3    33    1
   33    29    33    1
   34    33    34    1
   35    33    35    1
   36    35    36    1
   37    22    37    1
   38    35    37    1
   39    35    38    1
   40    38    39    1
   41    38    40    1
   42    38    41    1
   43    41    42    1
   44    43    44    1
   45    43    45    1
   46    43    46    1
   47    46    47    1
   48    46    48    1
   49    48    49    1
   50    46    50    1
   51    50    51    1
   52    50    52    1
   53    52    53    1
   54    24    54    1
   55    50    54    1
   56    54    55    1
   57    54    56    1
   58    56    57    1
   59    43    58    1
   60    56    58    1
   61    56    59    1
   62    59    60    1
   63    59    61    1
   64    59    62    1
   65    62    63    1
   66    64    65    1
   67    64    66    1
   68    64    67    1
   69    67    68    1
   70    67    69    1
   71    69    70    1
   72    67    71    1
   73    71    72    1
   74    71    73    1
   75    73    74    1
   76    45    75    1
   77    71    75    1
   78    75    76    1
   79    75    77    1
   80    77    78    1
   81    64    79    1
   82    77    79    1
   83    77    80    1
   84    80    81    1
   85    80    82    1
   86    80    83    1
   87    83    84    1
   88    85    86    1
   89    85    87    1
   90    85    88    1
   91    88    89    1
   92    88    90    1
   93    90    91    1
   94    88    92    1
   95    92    93    1
   96    92    94    1
   97    94    95    1
   98    66    96    1
   99    92    96    1
  100    96    97    1
  101    96    98    1
  102    98    99    1
  103    85   100    1
  104    98   100    1
  105    98   101    1
  106   101   102    1
  107   101   103    1
  108   101   104    1
  109   104   105    1
  110   106   107    1
  111    12   108    1
  112   106   108    1
  113   106   109    1
  114   109   110    1
  115   109   111    1
  116   111   112    1
  117   109   113    1
  118   113   114    1
  119   113   115    1
  120   115   116    1
  121    87   117    1
  122   113   117    1
  123   117   118    1
  124   117   119    1
  125   119   120    1
  126   106   121    1
  127   119   121    1
  128   119   122    1
  129   122   123    1
  130   122   124    1
  131   122   125    1
  132   125   126    1
  133   127   128    1
  134   127   129    2
  135   127   130    1
  136   130   131    1
  137   130   132    2
  138   132   133    1
  139   132   134    1
  140   134   135    1
  141   134   136    1
  142   134   137    1
  143   137   138    1
  144   137   139    1
  145   137   140    1
  146   140   141    1
  147   140   142    1
  148   140   143    1
@<TRIPOS>SUBSTRUCTURE
       1 MOL1            1 RESIDUE      1      MOL     
       2 MOL1          143 RESIDUE      1      MOL     
@<SCITEGIC>MOL_PROPERTY
feprocess Rank
SciTegic.value.IntegerValue
114

@<SCITEGIC>MOL_PROPERTY
Conf_Id
SciTegic.value.IntegerValue
601

@<SCITEGIC>MOL_PROPERTY
Probability
SciTegic.value.DoubleValue
0.00

@<SCITEGIC>MOL_PROPERTY
G
SciTegic.value.DoubleValue
501.994

@<SCITEGIC>MOL_PROPERTY
E
SciTegic.value.DoubleValue
319.426

@<SCITEGIC>MOL_PROPERTY
-TS
SciTegic.value.DoubleValue
182.568

@<SCITEGIC>MOL_PROPERTY
U+W
SciTegic.value.DoubleValue
193.338

@<SCITEGIC>MOL_PROPERTY
U
SciTegic.value.DoubleValue
278.017

@<SCITEGIC>MOL_PROPERTY
W
SciTegic.value.DoubleValue
-84.678

@<SCITEGIC>MOL_PROPERTY
W(PB)
SciTegic.value.DoubleValue
-90.836

@<SCITEGIC>MOL_PROPERTY
W(SA)
SciTegic.value.DoubleValue
6.157

@<SCITEGIC>MOL_PROPERTY
Valence
SciTegic.value.DoubleValue
151.614

@<SCITEGIC>MOL_PROPERTY
Coulomb
SciTegic.value.DoubleValue
149.472

@<SCITEGIC>MOL_PROPERTY
VdW
SciTegic.value.DoubleValue
-23.070

@<SCITEGIC>MOL_PROPERTY
VdW6
SciTegic.value.DoubleValue
-178.814

@<SCITEGIC>MOL_PROPERTY
VdW12
SciTegic.value.DoubleValue
155.744

@<SCITEGIC>MOL_PROPERTY
Bond
SciTegic.value.DoubleValue
5.161

@<SCITEGIC>MOL_PROPERTY
Angle
SciTegic.value.DoubleValue
15.174

@<SCITEGIC>MOL_PROPERTY
Pdih
SciTegic.value.DoubleValue
131.271

@<SCITEGIC>MOL_PROPERTY
Idih
SciTegic.value.DoubleValue
0.009

@<SCITEGIC>MOL_PROPERTY
Tether
SciTegic.value.DoubleValue
0.000

@<TRIPOS>MOLECULE
CD_guest-s19_fast_vm2_rndm.mol2 : feprocess host+ligand conformer 115
         143         148           2
SMALL
USER_CHARGES
 
@<TRIPOS>ATOM
       1    C1      16.199698   15.327992   20.552885 C.3        1 MOL1         0.2972
       2    H1      15.186846   15.227580   20.141974 H          1 MOL1         0.0751
       3    O1      16.376314   16.571701   21.252223 O.3        1 MOL1        -0.3740
       4    C2      16.500182   14.196922   21.568173 C.3        1 MOL1         0.1003
       5    H2      16.393707   13.239968   21.041065 H          1 MOL1         0.0783
       6    O2      15.574715   14.243981   22.667258 O.3        1 MOL1        -0.5519
       7    H3      15.519339   15.188411   22.960833 H          1 MOL1         0.3769
       8    C3      17.955397   14.303101   22.089531 C.3        1 MOL1         0.1053
       9    H4      18.033686   15.211581   22.703089 H          1 MOL1         0.0783
      10    O3      18.264753   13.154333   22.886644 O.3        1 MOL1        -0.5519
      11    H5      17.495952   13.044822   23.489170 H          1 MOL1         0.3769
      12    C4      18.967877   14.424505   20.923465 C.3        1 MOL1         0.1018
      13    H6      19.024161   13.453691   20.413814 H          1 MOL1         0.0783
      14    C5      18.548379   15.518853   19.901143 C.3        1 MOL1         0.1043
      15    H7      18.608836   16.496804   20.394843 H          1 MOL1         0.0783
      16    O4      17.181831   15.261765   19.497856 O.3        1 MOL1        -0.3740
      17    C6      19.415941   15.609075   18.620137 C.3        1 MOL1         0.0138
      18    H8      20.257445   16.284630   18.814864 H          1 MOL1         0.0794
      19    H9      18.817923   16.081493   17.829327 H          1 MOL1         0.0794
      20    O5      19.906961   14.337724   18.178654 O.3        1 MOL1        -0.5486
      21    H10     20.720773   14.156433   18.703136 H          1 MOL1         0.3769
      22    C7      14.651283   20.284908   21.726476 C.3        1 MOL1         0.2972
      23    H11     13.979341   21.147938   21.817261 H          1 MOL1         0.0751
      24    O6      16.034271   20.674380   21.809257 O.3        1 MOL1        -0.3740
      25    C8      14.376546   19.286419   22.875558 C.3        1 MOL1         0.1003
      26    H12     13.336043   18.948748   22.783774 H          1 MOL1         0.0783
      27    O7      14.560838   19.929060   24.147295 O.3        1 MOL1        -0.5519
      28    H13     15.232790   20.641978   24.011467 H          1 MOL1         0.3769
      29    C9      15.296757   18.050397   22.754407 C.3        1 MOL1         0.1053
      30    H14     16.330294   18.373983   22.941596 H          1 MOL1         0.0783
      31    O8      14.914445   17.067665   23.723962 O.3        1 MOL1        -0.5519
      32    H15     14.824834   17.564606   24.567413 H          1 MOL1         0.3769
      33    C10     15.232189   17.434925   21.336409 C.3        1 MOL1         0.1018
      34    H16     14.288892   16.881248   21.239216 H          1 MOL1         0.0783
      35    C11     15.352341   18.500283   20.209430 C.3        1 MOL1         0.1043
      36    H17     16.386590   18.866467   20.206635 H          1 MOL1         0.0783
      37    O9      14.450215   19.607305   20.469634 O.3        1 MOL1        -0.3740
      38    C12     15.059491   17.958603   18.790331 C.3        1 MOL1         0.0138
      39    H18     15.903841   17.330585   18.476202 H          1 MOL1         0.0794
      40    H19     15.014894   18.807156   18.094669 H          1 MOL1         0.0794
      41    O10     13.840181   17.206494   18.739339 O.3        1 MOL1        -0.5486
      42    H20     13.688404   16.950117   17.803739 H          1 MOL1         0.3769
      43    C13     18.488220   23.998651   21.258314 C.3        1 MOL1         0.2972
      44    H21     18.862434   25.009308   21.050380 H          1 MOL1         0.0751
      45    O11     19.561887   23.079511   21.527769 O.3        1 MOL1        -0.3740
      46    C14     17.575757   24.028029   22.508740 C.3        1 MOL1         0.1003
      47    H22     16.743552   24.712227   22.298086 H          1 MOL1         0.0783
      48    O12     18.306887   24.504737   23.649854 O.3        1 MOL1        -0.5519
      49    H23     19.259121   24.294062   23.485643 H          1 MOL1         0.3769
      50    C15     16.986507   22.626366   22.788405 C.3        1 MOL1         0.1053
      51    H24     17.809195   21.956717   23.076113 H          1 MOL1         0.0783
      52    O13     16.032306   22.708546   23.852936 O.3        1 MOL1        -0.5519
      53    H25     16.472803   23.247746   24.547114 H          1 MOL1         0.3769
      54    C16     16.315607   22.052988   21.518234 C.3        1 MOL1         0.1018
      55    H26     15.403423   22.629522   21.315644 H          1 MOL1         0.0783
      56    C17     17.255265   22.125671   20.281521 C.3        1 MOL1         0.1043
      57    H27     18.105700   21.456183   20.459621 H          1 MOL1         0.0783
      58    O14     17.734506   23.487883   20.136743 O.3        1 MOL1        -0.3740
      59    C18     16.613147   21.689544   18.939325 C.3        1 MOL1         0.0138
      60    H28     16.739678   20.605889   18.827044 H          1 MOL1         0.0794
      61    H29     17.171247   22.156009   18.116749 H          1 MOL1         0.0794
      62    O15     15.223613   22.023123   18.843297 O.3        1 MOL1        -0.5486
      63    H30     14.731410   21.317323   19.323507 H          1 MOL1         0.3769
      64    C19     23.646976   22.601193   20.850117 C.3        1 MOL1         0.2972
      65    H31     24.685573   22.713750   20.513241 H          1 MOL1         0.0751
      66    O16     23.434859   21.355561   21.533656 O.3        1 MOL1        -0.3740
      67    C20     23.260883   23.722219   21.847985 C.3        1 MOL1         0.1003
      68    H32     23.388733   24.684032   21.334696 H          1 MOL1         0.0783
      69    O17     24.107892   23.681695   23.008891 O.3        1 MOL1        -0.5519
      70    H33     24.143230   22.738799   23.310291 H          1 MOL1         0.3769
      71    C21     21.775264   23.589008   22.266964 C.3        1 MOL1         0.1053
      72    H34     21.667142   22.672385   22.863665 H          1 MOL1         0.0783
      73    O18     21.392260   24.723974   23.051549 O.3        1 MOL1        -0.5519
      74    H35     22.120110   24.844315   23.701238 H          1 MOL1         0.3769
      75    C22     20.853253   23.466148   21.029471 C.3        1 MOL1         0.1018
      76    H36     20.827266   24.437873   20.519080 H          1 MOL1         0.0783
      77    C23     21.351434   22.381719   20.034179 C.3        1 MOL1         0.1043
      78    H37     21.269075   21.398899   20.514732 H          1 MOL1         0.0783
      79    O19     22.740096   22.655812   19.726637 O.3        1 MOL1        -0.3740
      80    C24     20.560622   22.294463   18.703295 C.3        1 MOL1         0.0138
      81    H38     19.715179   21.609641   18.843036 H          1 MOL1         0.0794
      82    H39     21.208521   21.837368   17.943527 H          1 MOL1         0.0794
      83    O20     20.079377   23.564400   18.246421 O.3        1 MOL1        -0.5486
      84    H40     19.261464   23.758105   18.760220 H          1 MOL1         0.3769
      85    C25     25.094099   17.652495   22.149153 C.3        1 MOL1         0.2972
      86    H41     25.740752   16.778802   22.301847 H          1 MOL1         0.0751
      87    O21     23.706003   17.278155   22.075597 O.3        1 MOL1        -0.3740
      88    C26     25.263051   18.637082   23.330114 C.3        1 MOL1         0.1003
      89    H42     26.311914   18.960456   23.348002 H          1 MOL1         0.0783
      90    O22     24.942284   17.985638   24.569461 O.3        1 MOL1        -0.5519
      91    H43     24.297827   17.268452   24.353802 H          1 MOL1         0.3769
      92    C27     24.377789   19.887361   23.129533 C.3        1 MOL1         0.1053
      93    H44     23.329185   19.575881   23.218311 H          1 MOL1         0.0783
      94    O23     24.675925   20.859473   24.138211 O.3        1 MOL1        -0.5519
      95    H45     24.661509   20.358942   24.983955 H          1 MOL1         0.3769
      96    C28     24.579766   20.512811   21.728323 C.3        1 MOL1         0.1018
      97    H46     25.518356   21.082693   21.730729 H          1 MOL1         0.0783
      98    C29     24.583682   19.460565   20.583204 C.3        1 MOL1         0.1043
      99    H47     23.551558   19.109072   20.456990 H          1 MOL1         0.0783
     100    O24     25.437353   18.338809   20.928576 O.3        1 MOL1        -0.3740
     101    C30     25.045327   20.016023   19.214752 C.3        1 MOL1         0.0138
     102    H48     24.253027   20.662213   18.814208 H          1 MOL1         0.0794
     103    H49     25.159018   19.175999   18.516415 H          1 MOL1         0.0794
     104    O25     26.272177   20.750043   19.315495 O.3        1 MOL1        -0.5486
     105    H50     26.539720   21.008575   18.406743 H          1 MOL1         0.3769
     106    C31     21.338443   13.938559   21.228331 C.3        1 MOL1         0.2972
     107    H51     21.009104   12.932807   20.937543 H          1 MOL1         0.0751
     108    O26     20.220463   14.794094   21.527899 O.3        1 MOL1        -0.3740
     109    C32     22.212012   13.849837   22.503833 C.3        1 MOL1         0.1003
     110    H52     23.066714   13.198681   22.279054 H          1 MOL1         0.0783
     111    O27     21.453188   13.285899   23.585435 O.3        1 MOL1        -0.5519
     112    H53     20.511987   13.545893   23.434049 H          1 MOL1         0.3769
     113    C33     22.757937   15.242785   22.893616 C.3        1 MOL1         0.1053
     114    H54     21.908240   15.868462   23.195902 H          1 MOL1         0.0783
     115    O28     23.679549   15.113562   23.981798 O.3        1 MOL1        -0.5519
     116    H55     23.229505   14.526002   24.628523 H          1 MOL1         0.3769
     117    C34     23.449866   15.917991   21.686325 C.3        1 MOL1         0.1018
     118    H56     24.375214   15.370863   21.462804 H          1 MOL1         0.0783
     119    C35     22.539643   15.914493   20.426321 C.3        1 MOL1         0.1043
     120    H57     21.666314   16.549145   20.630553 H          1 MOL1         0.0783
     121    O29     22.108199   14.552175   20.172124 O.3        1 MOL1        -0.3740
     122    C36     23.203825   16.454102   19.132730 C.3        1 MOL1         0.0138
     123    H58     23.040111   17.536930   19.079839 H          1 MOL1         0.0794
     124    H59     22.685186   16.020914   18.267351 H          1 MOL1         0.0794
     125    O30     24.606195   16.170419   19.055799 O.3        1 MOL1        -0.5486
     126    H60     25.059432   16.809482   19.654011 H          1 MOL1         0.3769
     127    C1      19.694381   18.971035   19.785479 C.2        1 MOL1         0.6173
     128    O1      18.693162   18.954986   19.095721 O.co2      1 MOL1        -0.6755
     129    O2      20.820909   18.844388   19.341040 O.co2      1 MOL1        -0.6755
     130    C2      19.506416   19.176780   21.246212 C.2        1 MOL1        -0.1504
     131    H1      18.478277   19.273046   21.585733 H          1 MOL1         0.0814
     132    C3      20.528883   19.255816   22.125696 C.2        1 MOL1        -0.1394
     133    H2      21.558570   19.160158   21.786614 H          1 MOL1         0.0817
     134    C4      20.349587   19.487782   23.608438 C.3        1 MOL1        -0.1849
     135    H3      19.305825   19.746926   23.831678 H          1 MOL1         0.0736
     136    H4      20.959594   20.345864   23.920443 H          1 MOL1         0.0736
     137    C5      20.758549   18.240037   24.415213 C.3        1 MOL1        -0.1866
     138    H5      20.150108   17.381906   24.097533 H          1 MOL1         0.0738
     139    H6      21.805385   17.989349   24.199194 H          1 MOL1         0.0738
     140    C6      20.590540   18.459780   25.931162 C.3        1 MOL1        -0.2879
     141    H7      21.214387   19.294248   26.277003 H          1 MOL1         0.0750
     142    H8      19.545587   18.684473   26.181426 H          1 MOL1         0.0750
     143    H9      20.887825   17.560874   26.486404 H          1 MOL1         0.0750
@<TRIPOS>BOND
    1     1     2    1
    2     1     3    1
    3     1     4    1
    4     4     5    1
    5     4     6    1
    6     6     7    1
    7     4     8    1
    8     8     9    1
    9     8    10    1
   10    10    11    1
   11     8    12    1
   12    12    13    1
   13    12    14    1
   14    14    15    1
   15     1    16    1
   16    14    16    1
   17    14    17    1
   18    17    18    1
   19    17    19    1
   20    17    20    1
   21    20    21    1
   22    22    23    1
   23    22    24    1
   24    22    25    1
   25    25    26    1
   26    25    27    1
   27    27    28    1
   28    25    29    1
   29    29    30    1
   30    29    31    1
   31    31    32    1
   32     3    33    1
   33    29    33    1
   34    33    34    1
   35    33    35    1
   36    35    36    1
   37    22    37    1
   38    35    37    1
   39    35    38    1
   40    38    39    1
   41    38    40    1
   42    38    41    1
   43    41    42    1
   44    43    44    1
   45    43    45    1
   46    43    46    1
   47    46    47    1
   48    46    48    1
   49    48    49    1
   50    46    50    1
   51    50    51    1
   52    50    52    1
   53    52    53    1
   54    24    54    1
   55    50    54    1
   56    54    55    1
   57    54    56    1
   58    56    57    1
   59    43    58    1
   60    56    58    1
   61    56    59    1
   62    59    60    1
   63    59    61    1
   64    59    62    1
   65    62    63    1
   66    64    65    1
   67    64    66    1
   68    64    67    1
   69    67    68    1
   70    67    69    1
   71    69    70    1
   72    67    71    1
   73    71    72    1
   74    71    73    1
   75    73    74    1
   76    45    75    1
   77    71    75    1
   78    75    76    1
   79    75    77    1
   80    77    78    1
   81    64    79    1
   82    77    79    1
   83    77    80    1
   84    80    81    1
   85    80    82    1
   86    80    83    1
   87    83    84    1
   88    85    86    1
   89    85    87    1
   90    85    88    1
   91    88    89    1
   92    88    90    1
   93    90    91    1
   94    88    92    1
   95    92    93    1
   96    92    94    1
   97    94    95    1
   98    66    96    1
   99    92    96    1
  100    96    97    1
  101    96    98    1
  102    98    99    1
  103    85   100    1
  104    98   100    1
  105    98   101    1
  106   101   102    1
  107   101   103    1
  108   101   104    1
  109   104   105    1
  110   106   107    1
  111    12   108    1
  112   106   108    1
  113   106   109    1
  114   109   110    1
  115   109   111    1
  116   111   112    1
  117   109   113    1
  118   113   114    1
  119   113   115    1
  120   115   116    1
  121    87   117    1
  122   113   117    1
  123   117   118    1
  124   117   119    1
  125   119   120    1
  126   106   121    1
  127   119   121    1
  128   119   122    1
  129   122   123    1
  130   122   124    1
  131   122   125    1
  132   125   126    1
  133   127   128    1
  134   127   129    2
  135   127   130    1
  136   130   131    1
  137   130   132    2
  138   132   133    1
  139   132   134    1
  140   134   135    1
  141   134   136    1
  142   134   137    1
  143   137   138    1
  144   137   139    1
  145   137   140    1
  146   140   141    1
  147   140   142    1
  148   140   143    1
@<TRIPOS>SUBSTRUCTURE
       1 MOL1            1 RESIDUE      1      MOL     
       2 MOL1          143 RESIDUE      1      MOL     
@<SCITEGIC>MOL_PROPERTY
feprocess Rank
SciTegic.value.IntegerValue
115

@<SCITEGIC>MOL_PROPERTY
Conf_Id
SciTegic.value.IntegerValue
185

@<SCITEGIC>MOL_PROPERTY
Probability
SciTegic.value.DoubleValue
0.00

@<SCITEGIC>MOL_PROPERTY
G
SciTegic.value.DoubleValue
502.036

@<SCITEGIC>MOL_PROPERTY
E
SciTegic.value.DoubleValue
321.895

@<SCITEGIC>MOL_PROPERTY
-TS
SciTegic.value.DoubleValue
180.140

@<SCITEGIC>MOL_PROPERTY
U+W
SciTegic.value.DoubleValue
195.807

@<SCITEGIC>MOL_PROPERTY
U
SciTegic.value.DoubleValue
262.951

@<SCITEGIC>MOL_PROPERTY
W
SciTegic.value.DoubleValue
-67.144

@<SCITEGIC>MOL_PROPERTY
W(PB)
SciTegic.value.DoubleValue
-73.130

@<SCITEGIC>MOL_PROPERTY
W(SA)
SciTegic.value.DoubleValue
5.986

@<SCITEGIC>MOL_PROPERTY
Valence
SciTegic.value.DoubleValue
150.135

@<SCITEGIC>MOL_PROPERTY
Coulomb
SciTegic.value.DoubleValue
141.685

@<SCITEGIC>MOL_PROPERTY
VdW
SciTegic.value.DoubleValue
-28.868

@<SCITEGIC>MOL_PROPERTY
VdW6
SciTegic.value.DoubleValue
-180.566

@<SCITEGIC>MOL_PROPERTY
VdW12
SciTegic.value.DoubleValue
151.698

@<SCITEGIC>MOL_PROPERTY
Bond
SciTegic.value.DoubleValue
4.247

@<SCITEGIC>MOL_PROPERTY
Angle
SciTegic.value.DoubleValue
12.691

@<SCITEGIC>MOL_PROPERTY
Pdih
SciTegic.value.DoubleValue
133.197

@<SCITEGIC>MOL_PROPERTY
Idih
SciTegic.value.DoubleValue
0.001

@<SCITEGIC>MOL_PROPERTY
Tether
SciTegic.value.DoubleValue
0.000

@<TRIPOS>MOLECULE
CD_guest-s19_fast_vm2_rndm.mol2 : feprocess host+ligand conformer 116
         143         148           2
SMALL
USER_CHARGES
 
@<TRIPOS>ATOM
       1    C1      16.216950   15.277820   20.429906 C.3        1 MOL1         0.2972
       2    H1      15.196692   15.188169   20.037450 H          1 MOL1         0.0751
       3    O1      16.472283   16.599649   20.946089 O.3        1 MOL1        -0.3740
       4    C2      16.484673   14.226141   21.539243 C.3        1 MOL1         0.1003
       5    H2      16.359700   13.236595   21.080578 H          1 MOL1         0.0783
       6    O2      15.554586   14.351757   22.625321 O.3        1 MOL1        -0.5519
       7    H3      15.662626   15.262376   23.000491 H          1 MOL1         0.3769
       8    C3      17.943805   14.328810   22.049282 C.3        1 MOL1         0.1053
       9    H4      18.063172   15.295609   22.558448 H          1 MOL1         0.0783
      10    O3      18.206364   13.259808   22.965655 O.3        1 MOL1        -0.5519
      11    H5      17.430341   13.239939   23.568398 H          1 MOL1         0.3769
      12    C4      18.954096   14.270157   20.874992 C.3        1 MOL1         0.1018
      13    H6      18.974763   13.240140   20.495649 H          1 MOL1         0.0783
      14    C5      18.562432   15.245678   19.726859 C.3        1 MOL1         0.1043
      15    H7      18.690895   16.268331   20.098556 H          1 MOL1         0.0783
      16    O4      17.171472   15.036320   19.375460 O.3        1 MOL1        -0.3740
      17    C6      19.400569   15.128930   18.429024 C.3        1 MOL1         0.0138
      18    H8      20.290450   15.761179   18.529659 H          1 MOL1         0.0794
      19    H9      18.813564   15.543206   17.598497 H          1 MOL1         0.0794
      20    O5      19.794187   13.785880   18.128069 O.3        1 MOL1        -0.5486
      21    H10     20.677264   13.655108   18.539996 H          1 MOL1         0.3769
      22    C7      14.867289   20.231980   21.991560 C.3        1 MOL1         0.2972
      23    H11     14.250916   21.093701   22.279151 H          1 MOL1         0.0751
      24    O6      16.214645   20.624994   21.670996 O.3        1 MOL1        -0.3740
      25    C8      14.916390   19.208150   23.149754 C.3        1 MOL1         0.1003
      26    H12     13.889685   18.861954   23.326199 H          1 MOL1         0.0783
      27    O7      15.422200   19.816641   24.348832 O.3        1 MOL1        -0.5519
      28    H13     15.811072   20.687513   24.087855 H          1 MOL1         0.3769
      29    C9      15.774879   17.982514   22.762733 C.3        1 MOL1         0.1053
      30    H14     16.817432   18.310910   22.676613 H          1 MOL1         0.0783
      31    O8      15.669352   16.996279   23.793507 O.3        1 MOL1        -0.5519
      32    H15     15.802178   17.497270   24.629753 H          1 MOL1         0.3769
      33    C10     15.348708   17.380652   21.398938 C.3        1 MOL1         0.1018
      34    H16     14.450868   16.767950   21.550000 H          1 MOL1         0.0783
      35    C11     15.091719   18.463603   20.308850 C.3        1 MOL1         0.1043
      36    H17     16.068975   18.841945   19.985148 H          1 MOL1         0.0783
      37    O9      14.314004   19.569613   20.836233 O.3        1 MOL1        -0.3740
      38    C12     14.376154   17.923697   19.046882 C.3        1 MOL1         0.0138
      39    H18     15.036380   17.202936   18.545769 H          1 MOL1         0.0794
      40    H19     14.226429   18.759539   18.350464 H          1 MOL1         0.0794
      41    O10     13.115273   17.311333   19.348784 O.3        1 MOL1        -0.5486
      42    H20     13.280971   16.495992   19.864694 H          1 MOL1         0.3769
      43    C13     18.487365   24.089512   21.146380 C.3        1 MOL1         0.2972
      44    H21     18.809344   25.115535   20.927250 H          1 MOL1         0.0751
      45    O11     19.607799   23.241334   21.458583 O.3        1 MOL1        -0.3740
      46    C14     17.560216   24.083050   22.388437 C.3        1 MOL1         0.1003
      47    H22     16.697827   24.724173   22.164174 H          1 MOL1         0.0783
      48    O12     18.258961   24.604910   23.529744 O.3        1 MOL1        -0.5519
      49    H23     19.205607   24.342417   23.424448 H          1 MOL1         0.3769
      50    C15     17.035646   22.656479   22.684765 C.3        1 MOL1         0.1053
      51    H24     17.885261   22.035051   22.995396 H          1 MOL1         0.0783
      52    O13     16.067914   22.710885   23.737440 O.3        1 MOL1        -0.5519
      53    H25     16.462120   23.305837   24.414282 H          1 MOL1         0.3769
      54    C16     16.414248   22.026142   21.415173 C.3        1 MOL1         0.1018
      55    H26     15.471505   22.540242   21.185759 H          1 MOL1         0.0783
      56    C17     17.361774   22.138710   20.192297 C.3        1 MOL1         0.1043
      57    H27     18.247114   21.525288   20.392648 H          1 MOL1         0.0783
      58    O14     17.769388   23.521182   20.026177 O.3        1 MOL1        -0.3740
      59    C18     16.750093   21.620388   18.864027 C.3        1 MOL1         0.0138
      60    H28     16.974442   20.549550   18.776684 H          1 MOL1         0.0794
      61    H29     17.252815   22.120082   18.025376 H          1 MOL1         0.0794
      62    O15     15.333287   21.818134   18.777018 O.3        1 MOL1        -0.5486
      63    H30     14.912314   21.200854   19.418782 H          1 MOL1         0.3769
      64    C19     23.650791   22.612897   20.666285 C.3        1 MOL1         0.2972
      65    H31     24.691391   22.677002   20.323208 H          1 MOL1         0.0751
      66    O16     23.353996   21.313147   21.214220 O.3        1 MOL1        -0.3740
      67    C20     23.332371   23.709680   21.718830 C.3        1 MOL1         0.1003
      68    H32     23.467507   24.679270   21.222142 H          1 MOL1         0.0783
      69    O17     24.217172   23.646058   22.846912 O.3        1 MOL1        -0.5519
      70    H33     24.095578   22.755963   23.264147 H          1 MOL1         0.3769
      71    C21     21.853551   23.614107   22.170461 C.3        1 MOL1         0.1053
      72    H34     21.716407   22.661617   22.701745 H          1 MOL1         0.0783
      73    O18     21.543192   24.706055   23.043316 O.3        1 MOL1        -0.5519
      74    H35     22.280906   24.736297   23.691702 H          1 MOL1         0.3769
      75    C22     20.897046   23.633571   20.950855 C.3        1 MOL1         0.1018
      76    H36     20.885058   24.651410   20.539852 H          1 MOL1         0.0783
      77    C23     21.339450   22.625458   19.849012 C.3        1 MOL1         0.1043
      78    H37     21.190349   21.609063   20.235368 H          1 MOL1         0.0783
      79    O19     22.747500   22.823315   19.558437 O.3        1 MOL1        -0.3740
      80    C24     20.557069   22.716209   18.513665 C.3        1 MOL1         0.0138
      81    H38     19.681224   22.060235   18.576506 H          1 MOL1         0.0794
      82    H39     21.191531   22.317552   17.710857 H          1 MOL1         0.0794
      83    O20     20.135627   24.045710   18.190798 O.3        1 MOL1        -0.5486
      84    H40     19.286984   24.193460   18.667372 H          1 MOL1         0.3769
      85    C25     24.774746   17.723741   22.561344 C.3        1 MOL1         0.2972
      86    H41     25.337312   16.865898   22.951579 H          1 MOL1         0.0751
      87    O21     23.471501   17.317975   22.090045 O.3        1 MOL1        -0.3740
      88    C26     24.628142   18.792844   23.674396 C.3        1 MOL1         0.1003
      89    H42     25.640369   19.114941   23.950596 H          1 MOL1         0.0783
      90    O22     23.988899   18.222755   24.830105 O.3        1 MOL1        -0.5519
      91    H43     23.372218   18.892642   25.221916 H          1 MOL1         0.3769
      92    C27     23.868342   20.035057   23.154201 C.3        1 MOL1         0.1053
      93    H44     22.831155   19.737308   22.975157 H          1 MOL1         0.0783
      94    O23     23.924036   21.086426   24.126969 O.3        1 MOL1        -0.5519
      95    H45     23.358662   20.801286   24.889471 H          1 MOL1         0.3769
      96    C28     24.431011   20.561674   21.810170 C.3        1 MOL1         0.1018
      97    H46     25.313702   21.183587   22.009592 H          1 MOL1         0.0783
      98    C29     24.780087   19.430500   20.802549 C.3        1 MOL1         0.1043
      99    H47     23.831558   19.062057   20.397218 H          1 MOL1         0.0783
     100    O24     25.471471   18.330697   21.451044 O.3        1 MOL1        -0.3740
     101    C30     25.629546   19.912042   19.602092 C.3        1 MOL1         0.0138
     102    H48     25.001874   20.549971   18.965250 H          1 MOL1         0.0794
     103    H49     25.919324   19.038895   19.002225 H          1 MOL1         0.0794
     104    O25     26.792403   20.636987   20.020216 O.3        1 MOL1        -0.5486
     105    H50     27.320979   20.841757   19.218168 H          1 MOL1         0.3769
     106    C31     21.370132   13.878930   21.042519 C.3        1 MOL1         0.2972
     107    H51     21.071814   12.885895   20.683249 H          1 MOL1         0.0751
     108    O26     20.225427   14.665264   21.429731 O.3        1 MOL1        -0.3740
     109    C32     22.270608   13.728649   22.290542 C.3        1 MOL1         0.1003
     110    H52     23.136084   13.119542   21.998756 H          1 MOL1         0.0783
     111    O27     21.549281   13.059639   23.337788 O.3        1 MOL1        -0.5519
     112    H53     20.618367   13.386793   23.289117 H          1 MOL1         0.3769
     113    C33     22.797788   15.098125   22.787312 C.3        1 MOL1         0.1053
     114    H54     21.959166   15.652579   23.231146 H          1 MOL1         0.0783
     115    O28     23.806059   14.856677   23.773762 O.3        1 MOL1        -0.5519
     116    H55     23.387342   14.262940   24.434123 H          1 MOL1         0.3769
     117    C34     23.379276   15.952992   21.629382 C.3        1 MOL1         0.1018
     118    H56     24.363481   15.548755   21.358999 H          1 MOL1         0.0783
     119    C35     22.469159   15.949474   20.369106 C.3        1 MOL1         0.1043
     120    H57     21.555433   16.505273   20.605381 H          1 MOL1         0.0783
     121    O29     22.115155   14.586778   20.029185 O.3        1 MOL1        -0.3740
     122    C36     23.094068   16.624962   19.120264 C.3        1 MOL1         0.0138
     123    H58     22.817204   17.686398   19.126405 H          1 MOL1         0.0794
     124    H59     22.640366   16.189461   18.220250 H          1 MOL1         0.0794
     125    O30     24.520376   16.494473   19.058475 O.3        1 MOL1        -0.5486
     126    H60     24.895662   16.980440   19.828644 H          1 MOL1         0.3769
     127    C1      21.199833   20.835886   25.796908 C.2        1 MOL1         0.6173
     128    O1      22.071658   19.998074   25.951857 O.co2      1 MOL1        -0.6755
     129    O2      21.059300   21.789026   26.536563 O.co2      1 MOL1        -0.6755
     130    C2      20.367676   20.791113   24.565448 C.2        1 MOL1        -0.1504
     131    H1      19.743098   21.662053   24.384177 H          1 MOL1         0.0814
     132    C3      20.387815   19.765187   23.685249 C.2        1 MOL1        -0.1394
     133    H2      20.998952   18.882237   23.872746 H          1 MOL1         0.0817
     134    C4      19.628441   19.778883   22.379677 C.3        1 MOL1        -0.1849
     135    H3      19.708649   20.775114   21.938184 H          1 MOL1         0.0736
     136    H4      18.564889   19.596996   22.563776 H          1 MOL1         0.0736
     137    C5      20.179841   18.746010   21.378376 C.3        1 MOL1        -0.1866
     138    H5      21.263504   18.888114   21.268471 H          1 MOL1         0.0738
     139    H6      20.023889   17.735363   21.779948 H          1 MOL1         0.0738
     140    C6      19.509224   18.869934   19.995727 C.3        1 MOL1        -0.2879
     141    H7      19.680076   19.862082   19.564213 H          1 MOL1         0.0750
     142    H8      19.919306   18.130061   19.298214 H          1 MOL1         0.0750
     143    H9      18.426960   18.707986   20.073114 H          1 MOL1         0.0750
@<TRIPOS>BOND
    1     1     2    1
    2     1     3    1
    3     1     4    1
    4     4     5    1
    5     4     6    1
    6     6     7    1
    7     4     8    1
    8     8     9    1
    9     8    10    1
   10    10    11    1
   11     8    12    1
   12    12    13    1
   13    12    14    1
   14    14    15    1
   15     1    16    1
   16    14    16    1
   17    14    17    1
   18    17    18    1
   19    17    19    1
   20    17    20    1
   21    20    21    1
   22    22    23    1
   23    22    24    1
   24    22    25    1
   25    25    26    1
   26    25    27    1
   27    27    28    1
   28    25    29    1
   29    29    30    1
   30    29    31    1
   31    31    32    1
   32     3    33    1
   33    29    33    1
   34    33    34    1
   35    33    35    1
   36    35    36    1
   37    22    37    1
   38    35    37    1
   39    35    38    1
   40    38    39    1
   41    38    40    1
   42    38    41    1
   43    41    42    1
   44    43    44    1
   45    43    45    1
   46    43    46    1
   47    46    47    1
   48    46    48    1
   49    48    49    1
   50    46    50    1
   51    50    51    1
   52    50    52    1
   53    52    53    1
   54    24    54    1
   55    50    54    1
   56    54    55    1
   57    54    56    1
   58    56    57    1
   59    43    58    1
   60    56    58    1
   61    56    59    1
   62    59    60    1
   63    59    61    1
   64    59    62    1
   65    62    63    1
   66    64    65    1
   67    64    66    1
   68    64    67    1
   69    67    68    1
   70    67    69    1
   71    69    70    1
   72    67    71    1
   73    71    72    1
   74    71    73    1
   75    73    74    1
   76    45    75    1
   77    71    75    1
   78    75    76    1
   79    75    77    1
   80    77    78    1
   81    64    79    1
   82    77    79    1
   83    77    80    1
   84    80    81    1
   85    80    82    1
   86    80    83    1
   87    83    84    1
   88    85    86    1
   89    85    87    1
   90    85    88    1
   91    88    89    1
   92    88    90    1
   93    90    91    1
   94    88    92    1
   95    92    93    1
   96    92    94    1
   97    94    95    1
   98    66    96    1
   99    92    96    1
  100    96    97    1
  101    96    98    1
  102    98    99    1
  103    85   100    1
  104    98   100    1
  105    98   101    1
  106   101   102    1
  107   101   103    1
  108   101   104    1
  109   104   105    1
  110   106   107    1
  111    12   108    1
  112   106   108    1
  113   106   109    1
  114   109   110    1
  115   109   111    1
  116   111   112    1
  117   109   113    1
  118   113   114    1
  119   113   115    1
  120   115   116    1
  121    87   117    1
  122   113   117    1
  123   117   118    1
  124   117   119    1
  125   119   120    1
  126   106   121    1
  127   119   121    1
  128   119   122    1
  129   122   123    1
  130   122   124    1
  131   122   125    1
  132   125   126    1
  133   127   128    1
  134   127   129    2
  135   127   130    1
  136   130   131    1
  137   130   132    2
  138   132   133    1
  139   132   134    1
  140   134   135    1
  141   134   136    1
  142   134   137    1
  143   137   138    1
  144   137   139    1
  145   137   140    1
  146   140   141    1
  147   140   142    1
  148   140   143    1
@<TRIPOS>SUBSTRUCTURE
       1 MOL1            1 RESIDUE      1      MOL     
       2 MOL1          143 RESIDUE      1      MOL     
@<SCITEGIC>MOL_PROPERTY
feprocess Rank
SciTegic.value.IntegerValue
116

@<SCITEGIC>MOL_PROPERTY
Conf_Id
SciTegic.value.IntegerValue
606

@<SCITEGIC>MOL_PROPERTY
Probability
SciTegic.value.DoubleValue
0.00

@<SCITEGIC>MOL_PROPERTY
G
SciTegic.value.DoubleValue
502.044

@<SCITEGIC>MOL_PROPERTY
E
SciTegic.value.DoubleValue
320.018

@<SCITEGIC>MOL_PROPERTY
-TS
SciTegic.value.DoubleValue
182.026

@<SCITEGIC>MOL_PROPERTY
U+W
SciTegic.value.DoubleValue
193.929

@<SCITEGIC>MOL_PROPERTY
U
SciTegic.value.DoubleValue
272.123

@<SCITEGIC>MOL_PROPERTY
W
SciTegic.value.DoubleValue
-78.194

@<SCITEGIC>MOL_PROPERTY
W(PB)
SciTegic.value.DoubleValue
-84.271

@<SCITEGIC>MOL_PROPERTY
W(SA)
SciTegic.value.DoubleValue
6.077

@<SCITEGIC>MOL_PROPERTY
Valence
SciTegic.value.DoubleValue
151.223

@<SCITEGIC>MOL_PROPERTY
Coulomb
SciTegic.value.DoubleValue
145.892

@<SCITEGIC>MOL_PROPERTY
VdW
SciTegic.value.DoubleValue
-24.991

@<SCITEGIC>MOL_PROPERTY
VdW6
SciTegic.value.DoubleValue
-180.628

@<SCITEGIC>MOL_PROPERTY
VdW12
SciTegic.value.DoubleValue
155.637

@<SCITEGIC>MOL_PROPERTY
Bond
SciTegic.value.DoubleValue
4.824

@<SCITEGIC>MOL_PROPERTY
Angle
SciTegic.value.DoubleValue
14.809

@<SCITEGIC>MOL_PROPERTY
Pdih
SciTegic.value.DoubleValue
131.546

@<SCITEGIC>MOL_PROPERTY
Idih
SciTegic.value.DoubleValue
0.043

@<SCITEGIC>MOL_PROPERTY
Tether
SciTegic.value.DoubleValue
0.000

@<TRIPOS>MOLECULE
CD_guest-s19_fast_vm2_rndm.mol2 : feprocess host+ligand conformer 117
         143         148           2
SMALL
USER_CHARGES
 
@<TRIPOS>ATOM
       1    C1      16.235613   15.248847   20.810028 C.3        1 MOL1         0.2972
       2    H1      15.194807   15.186415   20.467140 H          1 MOL1         0.0751
       3    O1      16.525991   16.525957   21.409778 O.3        1 MOL1        -0.3740
       4    C2      16.532726   14.152538   21.863177 C.3        1 MOL1         0.1003
       5    H2      16.325464   13.180831   21.396534 H          1 MOL1         0.0783
       6    O2      15.691694   14.317776   23.017255 O.3        1 MOL1        -0.5519
       7    H3      15.738858   15.272104   23.279766 H          1 MOL1         0.3769
       8    C3      18.023604   14.177713   22.280989 C.3        1 MOL1         0.1053
       9    H4      18.189759   15.099918   22.850467 H          1 MOL1         0.0783
      10    O3      18.307104   13.043951   23.108209 O.3        1 MOL1        -0.5519
      11    H5      17.582307   13.021247   23.771280 H          1 MOL1         0.3769
      12    C4      18.975864   14.189072   21.056161 C.3        1 MOL1         0.1018
      13    H6      18.969834   13.186633   20.608679 H          1 MOL1         0.0783
      14    C5      18.542465   15.242407   19.993843 C.3        1 MOL1         0.1043
      15    H7      18.700573   16.243250   20.416411 H          1 MOL1         0.0783
      16    O4      17.137185   15.059909   19.700906 O.3        1 MOL1        -0.3740
      17    C6      19.304133   15.197578   18.644999 C.3        1 MOL1         0.0138
      18    H8      20.176549   15.856369   18.715867 H          1 MOL1         0.0794
      19    H9      18.656254   15.620650   17.865683 H          1 MOL1         0.0794
      20    O5      19.720771   13.880652   18.269699 O.3        1 MOL1        -0.5486
      21    H10     20.583307   13.723935   18.718185 H          1 MOL1         0.3769
      22    C7      14.875471   20.311969   21.850714 C.3        1 MOL1         0.2972
      23    H11     14.194921   21.166073   21.961205 H          1 MOL1         0.0751
      24    O6      16.247346   20.757966   21.756578 O.3        1 MOL1        -0.3740
      25    C8      14.683976   19.343979   23.049525 C.3        1 MOL1         0.1003
      26    H12     13.656834   18.962837   22.978650 H          1 MOL1         0.0783
      27    O7      14.820626   19.999000   24.318345 O.3        1 MOL1        -0.5519
      28    H13     15.691207   20.481149   24.343329 H          1 MOL1         0.3769
      29    C9      15.625940   18.126453   22.934432 C.3        1 MOL1         0.1053
      30    H14     16.664332   18.480339   22.991013 H          1 MOL1         0.0783
      31    O8      15.358237   17.204722   23.997840 O.3        1 MOL1        -0.5519
      32    H15     15.293966   17.763483   24.804408 H          1 MOL1         0.3769
      33    C10     15.410644   17.420369   21.576600 C.3        1 MOL1         0.1018
      34    H16     14.454787   16.880879   21.615339 H          1 MOL1         0.0783
      35    C11     15.416825   18.417713   20.384262 C.3        1 MOL1         0.1043
      36    H17     16.452116   18.756593   20.266724 H          1 MOL1         0.0783
      37    O9      14.566156   19.566316   20.653058 O.3        1 MOL1        -0.3740
      38    C12     14.966870   17.791316   19.041453 C.3        1 MOL1         0.0138
      39    H18     15.753840   17.112006   18.688496 H          1 MOL1         0.0794
      40    H19     14.870778   18.589200   18.293261 H          1 MOL1         0.0794
      41    O10     13.729441   17.080210   19.168456 O.3        1 MOL1        -0.5486
      42    H20     13.465420   16.779048   18.271841 H          1 MOL1         0.3769
      43    C13     18.574008   23.935275   20.363175 C.3        1 MOL1         0.2972
      44    H21     18.983146   24.828788   19.874296 H          1 MOL1         0.0751
      45    O11     19.616282   23.117049   20.931788 O.3        1 MOL1        -0.3740
      46    C14     17.545039   24.311641   21.459576 C.3        1 MOL1         0.1003
      47    H22     16.706679   24.813751   20.960046 H          1 MOL1         0.0783
      48    O12     18.120239   25.218687   22.412106 O.3        1 MOL1        -0.5519
      49    H23     18.812536   24.716202   22.909319 H          1 MOL1         0.3769
      50    C15     16.992592   23.026135   22.132295 C.3        1 MOL1         0.1053
      51    H24     17.822671   22.540673   22.663303 H          1 MOL1         0.0783
      52    O13     15.951791   23.352954   23.059175 O.3        1 MOL1        -0.5519
      53    H25     16.123820   22.770532   23.845325 H          1 MOL1         0.3769
      54    C16     16.440329   22.025779   21.078646 C.3        1 MOL1         0.1018
      55    H26     15.491659   22.430686   20.703029 H          1 MOL1         0.0783
      56    C17     17.415241   21.830388   19.874382 C.3        1 MOL1         0.1043
      57    H27     18.276405   21.243415   20.220461 H          1 MOL1         0.0783
      58    O14     17.870909   23.123980   19.402662 O.3        1 MOL1        -0.3740
      59    C18     16.824262   21.097382   18.641246 C.3        1 MOL1         0.0138
      60    H28     17.021068   20.024600   18.734385 H          1 MOL1         0.0794
      61    H29     17.371191   21.428678   17.748274 H          1 MOL1         0.0794
      62    O15     15.422279   21.328590   18.459053 O.3        1 MOL1        -0.5486
      63    H30     14.950538   20.826112   19.164550 H          1 MOL1         0.3769
      64    C19     23.533003   22.795915   22.043450 C.3        1 MOL1         0.2972
      65    H31     24.588022   22.906856   22.325909 H          1 MOL1         0.0751
      66    O16     23.173168   21.412266   21.862167 O.3        1 MOL1        -0.3740
      67    C20     22.629537   23.397080   23.144142 C.3        1 MOL1         0.1003
      68    H32     22.860265   24.468070   23.213224 H          1 MOL1         0.0783
      69    O17     22.892306   22.772603   24.411435 O.3        1 MOL1        -0.5519
      70    H33     23.394036   21.941656   24.224761 H          1 MOL1         0.3769
      71    C21     21.138271   23.252871   22.766729 C.3        1 MOL1         0.1053
      72    H34     20.885879   22.187564   22.793225 H          1 MOL1         0.0783
      73    O18     20.344891   23.957787   23.725428 O.3        1 MOL1        -0.5519
      74    H35     20.638245   23.615846   24.599237 H          1 MOL1         0.3769
      75    C22     20.838085   23.766355   21.334682 C.3        1 MOL1         0.1018
      76    H36     20.741000   24.859835   21.359885 H          1 MOL1         0.0783
      77    C23     21.910937   23.338360   20.290398 C.3        1 MOL1         0.1043
      78    H37     21.741329   22.278336   20.064829 H          1 MOL1         0.0783
      79    O19     23.256588   23.493455   20.811856 O.3        1 MOL1        -0.3740
      80    C24     21.809402   24.106570   18.951334 C.3        1 MOL1         0.0138
      81    H38     20.893823   23.787264   18.435273 H          1 MOL1         0.0794
      82    H39     22.658579   23.819423   18.316604 H          1 MOL1         0.0794
      83    O20     21.788423   25.526207   19.144089 O.3        1 MOL1        -0.5486
      84    H40     21.800225   25.947915   18.257127 H          1 MOL1         0.3769
      85    C25     25.017471   17.667538   21.579255 C.3        1 MOL1         0.2972
      86    H41     25.758262   16.874563   21.415684 H          1 MOL1         0.0751
      87    O21     23.716504   17.122511   21.873829 O.3        1 MOL1        -0.3740
      88    C26     25.442901   18.535025   22.791296 C.3        1 MOL1         0.1003
      89    H42     26.438116   18.944414   22.574536 H          1 MOL1         0.0783
      90    O22     25.506925   17.729207   23.978936 O.3        1 MOL1        -0.5519
      91    H43     24.808131   17.035477   23.888991 H          1 MOL1         0.3769
      92    C27     24.470314   19.721099   22.996157 C.3        1 MOL1         0.1053
      93    H44     23.500666   19.311821   23.303360 H          1 MOL1         0.0783
      94    O23     24.975603   20.588898   24.015711 O.3        1 MOL1        -0.5519
      95    H45     25.261427   19.989557   24.741099 H          1 MOL1         0.3769
      96    C28     24.271520   20.502796   21.675302 C.3        1 MOL1         0.1018
      97    H46     25.203325   21.029306   21.429521 H          1 MOL1         0.0783
      98    C29     23.903126   19.557513   20.502244 C.3        1 MOL1         0.1043
      99    H47     22.924792   19.107837   20.718440 H          1 MOL1         0.0783
     100    O24     24.905473   18.513307   20.411940 O.3        1 MOL1        -0.3740
     101    C30     23.785335   20.263064   19.125244 C.3        1 MOL1         0.0138
     102    H48     22.748794   20.599300   18.996795 H          1 MOL1         0.0794
     103    H49     23.979745   19.526366   18.334487 H          1 MOL1         0.0794
     104    O25     24.670892   21.380986   18.982743 O.3        1 MOL1        -0.5486
     105    H50     24.336545   22.095953   19.572698 H          1 MOL1         0.3769
     106    C31     21.385239   13.721129   21.164531 C.3        1 MOL1         0.2972
     107    H51     21.054343   12.712163   20.887241 H          1 MOL1         0.0751
     108    O26     20.274675   14.541657   21.575841 O.3        1 MOL1        -0.3740
     109    C32     22.368611   13.637023   22.358690 C.3        1 MOL1         0.1003
     110    H52     23.211451   13.003334   22.053614 H          1 MOL1         0.0783
     111    O27     21.713756   13.049364   23.493746 O.3        1 MOL1        -0.5519
     112    H53     20.777853   13.362093   23.465172 H          1 MOL1         0.3769
     113    C33     22.924006   15.034749   22.722404 C.3        1 MOL1         0.1053
     114    H54     22.095344   15.634223   23.118978 H          1 MOL1         0.0783
     115    O28     23.947113   14.904102   23.715717 O.3        1 MOL1        -0.5519
     116    H55     23.567892   14.304807   24.396052 H          1 MOL1         0.3769
     117    C34     23.489011   15.756367   21.475816 C.3        1 MOL1         0.1018
     118    H56     24.417509   15.252118   21.177538 H          1 MOL1         0.0783
     119    C35     22.478198   15.732584   20.295055 C.3        1 MOL1         0.1043
     120    H57     21.607926   16.337315   20.582782 H          1 MOL1         0.0783
     121    O29     22.055450   14.364921   20.058961 O.3        1 MOL1        -0.3740
     122    C36     23.012246   16.308063   18.957610 C.3        1 MOL1         0.0138
     123    H58     22.834631   17.390369   18.948584 H          1 MOL1         0.0794
     124    H59     22.424583   15.883553   18.133085 H          1 MOL1         0.0794
     125    O30     24.403367   16.048357   18.743847 O.3        1 MOL1        -0.5486
     126    H60     24.894027   16.782979   19.178259 H          1 MOL1         0.3769
     127    C1      18.059843   21.706495   25.540263 C.2        1 MOL1         0.6173
     128    O1      17.013824   21.560893   24.933857 O.co2      1 MOL1        -0.6755
     129    O2      18.160029   22.392238   26.539025 O.co2      1 MOL1        -0.6755
     130    C2      19.289009   21.027814   25.050197 C.2        1 MOL1        -0.1504
     131    H1      20.188089   21.194307   25.638682 H          1 MOL1         0.0814
     132    C3      19.333706   20.246467   23.947617 C.2        1 MOL1        -0.1394
     133    H2      18.443060   20.073107   23.345799 H          1 MOL1         0.0817
     134    C4      20.597478   19.568012   23.465493 C.3        1 MOL1        -0.1849
     135    H3      21.461568   20.194024   23.718057 H          1 MOL1         0.0736
     136    H4      20.586251   19.480801   22.371150 H          1 MOL1         0.0736
     137    C5      20.793894   18.177781   24.101815 C.3        1 MOL1        -0.1866
     138    H5      21.781645   17.791484   23.821830 H          1 MOL1         0.0738
     139    H6      20.791071   18.268115   25.196587 H          1 MOL1         0.0738
     140    C6      19.711287   17.174426   23.659781 C.3        1 MOL1        -0.2879
     141    H7      19.694137   17.076281   22.567471 H          1 MOL1         0.0750
     142    H8      19.906578   16.184421   24.090679 H          1 MOL1         0.0750
     143    H9      18.715252   17.494828   23.990975 H          1 MOL1         0.0750
@<TRIPOS>BOND
    1     1     2    1
    2     1     3    1
    3     1     4    1
    4     4     5    1
    5     4     6    1
    6     6     7    1
    7     4     8    1
    8     8     9    1
    9     8    10    1
   10    10    11    1
   11     8    12    1
   12    12    13    1
   13    12    14    1
   14    14    15    1
   15     1    16    1
   16    14    16    1
   17    14    17    1
   18    17    18    1
   19    17    19    1
   20    17    20    1
   21    20    21    1
   22    22    23    1
   23    22    24    1
   24    22    25    1
   25    25    26    1
   26    25    27    1
   27    27    28    1
   28    25    29    1
   29    29    30    1
   30    29    31    1
   31    31    32    1
   32     3    33    1
   33    29    33    1
   34    33    34    1
   35    33    35    1
   36    35    36    1
   37    22    37    1
   38    35    37    1
   39    35    38    1
   40    38    39    1
   41    38    40    1
   42    38    41    1
   43    41    42    1
   44    43    44    1
   45    43    45    1
   46    43    46    1
   47    46    47    1
   48    46    48    1
   49    48    49    1
   50    46    50    1
   51    50    51    1
   52    50    52    1
   53    52    53    1
   54    24    54    1
   55    50    54    1
   56    54    55    1
   57    54    56    1
   58    56    57    1
   59    43    58    1
   60    56    58    1
   61    56    59    1
   62    59    60    1
   63    59    61    1
   64    59    62    1
   65    62    63    1
   66    64    65    1
   67    64    66    1
   68    64    67    1
   69    67    68    1
   70    67    69    1
   71    69    70    1
   72    67    71    1
   73    71    72    1
   74    71    73    1
   75    73    74    1
   76    45    75    1
   77    71    75    1
   78    75    76    1
   79    75    77    1
   80    77    78    1
   81    64    79    1
   82    77    79    1
   83    77    80    1
   84    80    81    1
   85    80    82    1
   86    80    83    1
   87    83    84    1
   88    85    86    1
   89    85    87    1
   90    85    88    1
   91    88    89    1
   92    88    90    1
   93    90    91    1
   94    88    92    1
   95    92    93    1
   96    92    94    1
   97    94    95    1
   98    66    96    1
   99    92    96    1
  100    96    97    1
  101    96    98    1
  102    98    99    1
  103    85   100    1
  104    98   100    1
  105    98   101    1
  106   101   102    1
  107   101   103    1
  108   101   104    1
  109   104   105    1
  110   106   107    1
  111    12   108    1
  112   106   108    1
  113   106   109    1
  114   109   110    1
  115   109   111    1
  116   111   112    1
  117   109   113    1
  118   113   114    1
  119   113   115    1
  120   115   116    1
  121    87   117    1
  122   113   117    1
  123   117   118    1
  124   117   119    1
  125   119   120    1
  126   106   121    1
  127   119   121    1
  128   119   122    1
  129   122   123    1
  130   122   124    1
  131   122   125    1
  132   125   126    1
  133   127   128    1
  134   127   129    2
  135   127   130    1
  136   130   131    1
  137   130   132    2
  138   132   133    1
  139   132   134    1
  140   134   135    1
  141   134   136    1
  142   134   137    1
  143   137   138    1
  144   137   139    1
  145   137   140    1
  146   140   141    1
  147   140   142    1
  148   140   143    1
@<TRIPOS>SUBSTRUCTURE
       1 MOL1            1 RESIDUE      1      MOL     
       2 MOL1          143 RESIDUE      1      MOL     
@<SCITEGIC>MOL_PROPERTY
feprocess Rank
SciTegic.value.IntegerValue
117

@<SCITEGIC>MOL_PROPERTY
Conf_Id
SciTegic.value.IntegerValue
943

@<SCITEGIC>MOL_PROPERTY
Probability
SciTegic.value.DoubleValue
0.00

@<SCITEGIC>MOL_PROPERTY
G
SciTegic.value.DoubleValue
502.092

@<SCITEGIC>MOL_PROPERTY
E
SciTegic.value.DoubleValue
319.910

@<SCITEGIC>MOL_PROPERTY
-TS
SciTegic.value.DoubleValue
182.182

@<SCITEGIC>MOL_PROPERTY
U+W
SciTegic.value.DoubleValue
193.822

@<SCITEGIC>MOL_PROPERTY
U
SciTegic.value.DoubleValue
275.876

@<SCITEGIC>MOL_PROPERTY
W
SciTegic.value.DoubleValue
-82.054

@<SCITEGIC>MOL_PROPERTY
W(PB)
SciTegic.value.DoubleValue
-88.168

@<SCITEGIC>MOL_PROPERTY
W(SA)
SciTegic.value.DoubleValue
6.114

@<SCITEGIC>MOL_PROPERTY
Valence
SciTegic.value.DoubleValue
151.465

@<SCITEGIC>MOL_PROPERTY
Coulomb
SciTegic.value.DoubleValue
146.310

@<SCITEGIC>MOL_PROPERTY
VdW
SciTegic.value.DoubleValue
-21.900

@<SCITEGIC>MOL_PROPERTY
VdW6
SciTegic.value.DoubleValue
-177.318

@<SCITEGIC>MOL_PROPERTY
VdW12
SciTegic.value.DoubleValue
155.418

@<SCITEGIC>MOL_PROPERTY
Bond
SciTegic.value.DoubleValue
4.989

@<SCITEGIC>MOL_PROPERTY
Angle
SciTegic.value.DoubleValue
14.485

@<SCITEGIC>MOL_PROPERTY
Pdih
SciTegic.value.DoubleValue
131.991

@<SCITEGIC>MOL_PROPERTY
Idih
SciTegic.value.DoubleValue
0.000

@<SCITEGIC>MOL_PROPERTY
Tether
SciTegic.value.DoubleValue
0.000

@<TRIPOS>MOLECULE
CD_guest-s19_fast_vm2_rndm.mol2 : feprocess host+ligand conformer 118
         143         148           2
SMALL
USER_CHARGES
 
@<TRIPOS>ATOM
       1    C1      16.249912   15.336158   21.660701 C.3        1 MOL1         0.2972
       2    H1      15.196713   15.145236   21.903256 H          1 MOL1         0.0751
       3    O1      16.450635   16.684794   21.193158 O.3        1 MOL1        -0.3740
       4    C2      17.144205   15.088208   22.903576 C.3        1 MOL1         0.1003
       5    H2      17.013830   14.035899   23.187908 H          1 MOL1         0.0783
       6    O2      16.766342   15.920723   24.011524 O.3        1 MOL1        -0.5519
       7    H3      15.876341   16.294705   23.806721 H          1 MOL1         0.3769
       8    C3      18.635163   15.309538   22.561232 C.3        1 MOL1         0.1053
       9    H4      18.779616   16.372566   22.329099 H          1 MOL1         0.0783
      10    O3      19.425854   14.947615   23.697197 O.3        1 MOL1        -0.5519
      11    H5      18.987707   15.399085   24.453636 H          1 MOL1         0.3769
      12    C4      19.059274   14.488935   21.317981 C.3        1 MOL1         0.1018
      13    H6      19.138920   13.432070   21.604140 H          1 MOL1         0.0783
      14    C5      18.049022   14.638034   20.144581 C.3        1 MOL1         0.1043
      15    H7      18.144145   15.654668   19.741198 H          1 MOL1         0.0783
      16    O4      16.691876   14.439827   20.619010 O.3        1 MOL1        -0.3740
      17    C6      18.305802   13.655253   18.976895 C.3        1 MOL1         0.0138
      18    H8      19.221540   13.965413   18.455661 H          1 MOL1         0.0794
      19    H9      17.478242   13.740105   18.259869 H          1 MOL1         0.0794
      20    O5      18.438230   12.301058   19.427119 O.3        1 MOL1        -0.5486
      21    H10     18.512299   11.728602   18.632452 H          1 MOL1         0.3769
      22    C7      14.495959   20.334365   21.137360 C.3        1 MOL1         0.2972
      23    H11     13.798971   21.172378   21.010080 H          1 MOL1         0.0751
      24    O6      15.785347   20.780633   21.595608 O.3        1 MOL1        -0.3740
      25    C8      13.947320   19.350831   22.197720 C.3        1 MOL1         0.1003
      26    H12     12.976065   18.985427   21.839503 H          1 MOL1         0.0783
      27    O7      13.771229   20.026436   23.453005 O.3        1 MOL1        -0.5519
      28    H13     14.531364   20.651427   23.545169 H          1 MOL1         0.3769
      29    C9      14.884986   18.131675   22.374989 C.3        1 MOL1         0.1053
      30    H14     15.804610   18.481256   22.858207 H          1 MOL1         0.0783
      31    O8      14.235621   17.175280   23.219488 O.3        1 MOL1        -0.5519
      32    H15     13.824370   17.710363   23.936147 H          1 MOL1         0.3769
      33    C10     15.269042   17.491436   21.011797 C.3        1 MOL1         0.1018
      34    H16     14.425712   16.892541   20.645383 H          1 MOL1         0.0783
      35    C11     15.649635   18.548054   19.938445 C.3        1 MOL1         0.1043
      36    H17     16.625533   18.969588   20.213850 H          1 MOL1         0.0783
      37    O9      14.666303   19.612597   19.900420 O.3        1 MOL1        -0.3740
      38    C12     15.800175   17.956580   18.514212 C.3        1 MOL1         0.0138
      39    H18     16.721393   17.359624   18.479415 H          1 MOL1         0.0794
      40    H19     15.923626   18.783506   17.802820 H          1 MOL1         0.0794
      41    O10     14.684368   17.144687   18.129212 O.3        1 MOL1        -0.5486
      42    H20     14.752224   16.297642   18.619919 H          1 MOL1         0.3769
      43    C13     18.393168   24.033929   21.409683 C.3        1 MOL1         0.2972
      44    H21     18.813863   25.039660   21.282770 H          1 MOL1         0.0751
      45    O11     19.419594   23.068146   21.712773 O.3        1 MOL1        -0.3740
      46    C14     17.375387   24.044147   22.576761 C.3        1 MOL1         0.1003
      47    H22     16.604017   24.787275   22.336494 H          1 MOL1         0.0783
      48    O12     18.028706   24.415924   23.800935 O.3        1 MOL1        -0.5519
      49    H23     18.973997   24.140185   23.712995 H          1 MOL1         0.3769
      50    C15     16.682244   22.669959   22.728100 C.3        1 MOL1         0.1053
      51    H24     17.435246   21.949908   23.070110 H          1 MOL1         0.0783
      52    O13     15.629492   22.766813   23.694058 O.3        1 MOL1        -0.5519
      53    H25     16.033885   23.219654   24.466443 H          1 MOL1         0.3769
      54    C16     16.115340   22.165346   21.378943 C.3        1 MOL1         0.1018
      55    H26     15.233095   22.767228   21.124655 H          1 MOL1         0.0783
      56    C17     17.173223   22.263088   20.242966 C.3        1 MOL1         0.1043
      57    H27     17.976478   21.551888   20.475048 H          1 MOL1         0.0783
      58    O14     17.715491   23.607938   20.208728 O.3        1 MOL1        -0.3740
      59    C18     16.661450   21.920750   18.820513 C.3        1 MOL1         0.0138
      60    H28     16.759913   20.839980   18.664802 H          1 MOL1         0.0794
      61    H29     17.318688   22.405707   18.086341 H          1 MOL1         0.0794
      62    O15     15.304477   22.316604   18.596968 O.3        1 MOL1        -0.5486
      63    H30     14.743489   21.558226   18.876934 H          1 MOL1         0.3769
      64    C19     23.571513   22.589861   21.180213 C.3        1 MOL1         0.2972
      65    H31     24.608574   22.783251   20.876851 H          1 MOL1         0.0751
      66    O16     23.417743   21.271024   21.733227 O.3        1 MOL1        -0.3740
      67    C20     23.124853   23.601718   22.268646 C.3        1 MOL1         0.1003
      68    H32     23.268117   24.610059   21.859225 H          1 MOL1         0.0783
      69    O17     23.923773   23.452580   23.454316 O.3        1 MOL1        -0.5519
      70    H33     24.010018   22.481104   23.628007 H          1 MOL1         0.3769
      71    C21     21.622295   23.433379   22.610114 C.3        1 MOL1         0.1053
      72    H34     21.493383   22.465335   23.112729 H          1 MOL1         0.0783
      73    O18     21.205285   24.492488   23.478711 O.3        1 MOL1        -0.5519
      74    H35     21.897674   24.540881   24.174605 H          1 MOL1         0.3769
      75    C22     20.758859   23.433536   21.324965 C.3        1 MOL1         0.1018
      76    H36     20.797721   24.436852   20.880542 H          1 MOL1         0.0783
      77    C23     21.295268   22.403116   20.295151 C.3        1 MOL1         0.1043
      78    H37     21.207029   21.397640   20.727322 H          1 MOL1         0.0783
      79    O19     22.688171   22.704452   20.043377 O.3        1 MOL1        -0.3740
      80    C24     20.557903   22.383394   18.932243 C.3        1 MOL1         0.0138
      81    H38     19.690347   21.718011   19.013761 H          1 MOL1         0.0794
      82    H39     21.226251   21.939900   18.182258 H          1 MOL1         0.0794
      83    O20     20.132405   23.681134   18.501709 O.3        1 MOL1        -0.5486
      84    H40     19.302827   23.885867   18.992670 H          1 MOL1         0.3769
      85    C25     25.259420   17.583540   21.887078 C.3        1 MOL1         0.2972
      86    H41     25.948283   16.729652   21.910916 H          1 MOL1         0.0751
      87    O21     23.880878   17.147238   21.904462 O.3        1 MOL1        -0.3740
      88    C26     25.532197   18.502673   23.103702 C.3        1 MOL1         0.1003
      89    H42     26.531027   18.934508   22.959774 H          1 MOL1         0.0783
      90    O22     25.544242   17.757269   24.331111 O.3        1 MOL1        -0.5519
      91    H43     24.608213   17.543253   24.581788 H          1 MOL1         0.3769
      92    C27     24.516579   19.671122   23.107234 C.3        1 MOL1         0.1053
      93    H44     23.505909   19.254713   23.166092 H          1 MOL1         0.0783
      94    O23     24.735447   20.550369   24.217517 O.3        1 MOL1        -0.5519
      95    H45     24.381065   20.057246   25.003891 H          1 MOL1         0.3769
      96    C28     24.604104   20.454933   21.778614 C.3        1 MOL1         0.1018
      97    H46     25.521174   21.058542   21.794449 H          1 MOL1         0.0783
      98    C29     24.585387   19.519335   20.532341 C.3        1 MOL1         0.1043
      99    H47     23.558233   19.149327   20.421303 H          1 MOL1         0.0783
     100    O24     25.476941   18.383791   20.705790 O.3        1 MOL1        -0.3740
     101    C30     24.973611   20.228119   19.211758 C.3        1 MOL1         0.0138
     102    H48     24.150301   20.887992   18.909637 H          1 MOL1         0.0794
     103    H49     25.084308   19.469669   18.425300 H          1 MOL1         0.0794
     104    O25     26.183225   20.985128   19.342144 O.3        1 MOL1        -0.5486
     105    H50     26.403593   21.349294   18.457187 H          1 MOL1         0.3769
     106    C31     21.368447   14.081637   20.563733 C.3        1 MOL1         0.2972
     107    H51     20.954906   13.166215   20.121814 H          1 MOL1         0.0751
     108    O26     20.322556   15.028989   20.874097 O.3        1 MOL1        -0.3740
     109    C32     22.205850   13.756298   21.830942 C.3        1 MOL1         0.1003
     110    H52     23.031409   13.107446   21.511650 H          1 MOL1         0.0783
     111    O27     21.423468   13.051968   22.807400 O.3        1 MOL1        -0.5519
     112    H53     20.799767   13.713490   23.197857 H          1 MOL1         0.3769
     113    C33     22.826711   15.050255   22.419816 C.3        1 MOL1         0.1053
     114    H54     22.007939   15.682973   22.788213 H          1 MOL1         0.0783
     115    O28     23.710732   14.727684   23.498916 O.3        1 MOL1        -0.5519
     116    H55     23.580727   15.448507   24.170218 H          1 MOL1         0.3769
     117    C34     23.608516   15.844888   21.338309 C.3        1 MOL1         0.1018
     118    H56     24.533480   15.295234   21.120568 H          1 MOL1         0.0783
     119    C35     22.783705   16.009337   20.024832 C.3        1 MOL1         0.1043
     120    H57     21.950183   16.695056   20.226518 H          1 MOL1         0.0783
     121    O29     22.258987   14.718327   19.625173 O.3        1 MOL1        -0.3740
     122    C36     23.558484   16.579155   18.808052 C.3        1 MOL1         0.0138
     123    H58     23.465596   17.670446   18.809228 H          1 MOL1         0.0794
     124    H59     23.067879   16.228656   17.890103 H          1 MOL1         0.0794
     125    O30     24.941573   16.209899   18.789651 O.3        1 MOL1        -0.5486
     126    H60     25.406579   16.834143   19.394285 H          1 MOL1         0.3769
     127    C1      22.518507   18.003369   25.268914 C.2        1 MOL1         0.6173
     128    O1      23.097286   18.870609   25.897318 O.co2      1 MOL1        -0.6755
     129    O2      22.962559   16.876855   25.156552 O.co2      1 MOL1        -0.6755
     130    C2      21.363941   18.372664   24.407785 C.2        1 MOL1        -0.1504
     131    H1      20.948735   17.573653   23.799006 H          1 MOL1         0.0814
     132    C3      20.867496   19.627622   24.323981 C.2        1 MOL1        -0.1394
     133    H2      21.291726   20.434313   24.920930 H          1 MOL1         0.0817
     134    C4      19.750963   20.032463   23.387227 C.3        1 MOL1        -0.1849
     135    H3      20.063693   19.846411   22.351716 H          1 MOL1         0.0736
     136    H4      19.580044   21.111907   23.470141 H          1 MOL1         0.0736
     137    C5      18.426648   19.289234   23.655511 C.3        1 MOL1        -0.1866
     138    H5      17.725971   19.532449   22.849610 H          1 MOL1         0.0738
     139    H6      18.587182   18.205524   23.613690 H          1 MOL1         0.0738
     140    C6      17.795982   19.661066   25.013395 C.3        1 MOL1        -0.2879
     141    H7      17.607410   20.739522   25.082182 H          1 MOL1         0.0750
     142    H8      16.840264   19.138851   25.149204 H          1 MOL1         0.0750
     143    H9      18.456771   19.376083   25.842066 H          1 MOL1         0.0750
@<TRIPOS>BOND
    1     1     2    1
    2     1     3    1
    3     1     4    1
    4     4     5    1
    5     4     6    1
    6     6     7    1
    7     4     8    1
    8     8     9    1
    9     8    10    1
   10    10    11    1
   11     8    12    1
   12    12    13    1
   13    12    14    1
   14    14    15    1
   15     1    16    1
   16    14    16    1
   17    14    17    1
   18    17    18    1
   19    17    19    1
   20    17    20    1
   21    20    21    1
   22    22    23    1
   23    22    24    1
   24    22    25    1
   25    25    26    1
   26    25    27    1
   27    27    28    1
   28    25    29    1
   29    29    30    1
   30    29    31    1
   31    31    32    1
   32     3    33    1
   33    29    33    1
   34    33    34    1
   35    33    35    1
   36    35    36    1
   37    22    37    1
   38    35    37    1
   39    35    38    1
   40    38    39    1
   41    38    40    1
   42    38    41    1
   43    41    42    1
   44    43    44    1
   45    43    45    1
   46    43    46    1
   47    46    47    1
   48    46    48    1
   49    48    49    1
   50    46    50    1
   51    50    51    1
   52    50    52    1
   53    52    53    1
   54    24    54    1
   55    50    54    1
   56    54    55    1
   57    54    56    1
   58    56    57    1
   59    43    58    1
   60    56    58    1
   61    56    59    1
   62    59    60    1
   63    59    61    1
   64    59    62    1
   65    62    63    1
   66    64    65    1
   67    64    66    1
   68    64    67    1
   69    67    68    1
   70    67    69    1
   71    69    70    1
   72    67    71    1
   73    71    72    1
   74    71    73    1
   75    73    74    1
   76    45    75    1
   77    71    75    1
   78    75    76    1
   79    75    77    1
   80    77    78    1
   81    64    79    1
   82    77    79    1
   83    77    80    1
   84    80    81    1
   85    80    82    1
   86    80    83    1
   87    83    84    1
   88    85    86    1
   89    85    87    1
   90    85    88    1
   91    88    89    1
   92    88    90    1
   93    90    91    1
   94    88    92    1
   95    92    93    1
   96    92    94    1
   97    94    95    1
   98    66    96    1
   99    92    96    1
  100    96    97    1
  101    96    98    1
  102    98    99    1
  103    85   100    1
  104    98   100    1
  105    98   101    1
  106   101   102    1
  107   101   103    1
  108   101   104    1
  109   104   105    1
  110   106   107    1
  111    12   108    1
  112   106   108    1
  113   106   109    1
  114   109   110    1
  115   109   111    1
  116   111   112    1
  117   109   113    1
  118   113   114    1
  119   113   115    1
  120   115   116    1
  121    87   117    1
  122   113   117    1
  123   117   118    1
  124   117   119    1
  125   119   120    1
  126   106   121    1
  127   119   121    1
  128   119   122    1
  129   122   123    1
  130   122   124    1
  131   122   125    1
  132   125   126    1
  133   127   128    1
  134   127   129    2
  135   127   130    1
  136   130   131    1
  137   130   132    2
  138   132   133    1
  139   132   134    1
  140   134   135    1
  141   134   136    1
  142   134   137    1
  143   137   138    1
  144   137   139    1
  145   137   140    1
  146   140   141    1
  147   140   142    1
  148   140   143    1
@<TRIPOS>SUBSTRUCTURE
       1 MOL1            1 RESIDUE      1      MOL     
       2 MOL1          143 RESIDUE      1      MOL     
@<SCITEGIC>MOL_PROPERTY
feprocess Rank
SciTegic.value.IntegerValue
118

@<SCITEGIC>MOL_PROPERTY
Conf_Id
SciTegic.value.IntegerValue
483

@<SCITEGIC>MOL_PROPERTY
Probability
SciTegic.value.DoubleValue
0.00

@<SCITEGIC>MOL_PROPERTY
G
SciTegic.value.DoubleValue
502.103

@<SCITEGIC>MOL_PROPERTY
E
SciTegic.value.DoubleValue
318.982

@<SCITEGIC>MOL_PROPERTY
-TS
SciTegic.value.DoubleValue
183.122

@<SCITEGIC>MOL_PROPERTY
U+W
SciTegic.value.DoubleValue
192.893

@<SCITEGIC>MOL_PROPERTY
U
SciTegic.value.DoubleValue
272.300

@<SCITEGIC>MOL_PROPERTY
W
SciTegic.value.DoubleValue
-79.406

@<SCITEGIC>MOL_PROPERTY
W(PB)
SciTegic.value.DoubleValue
-85.505

@<SCITEGIC>MOL_PROPERTY
W(SA)
SciTegic.value.DoubleValue
6.099

@<SCITEGIC>MOL_PROPERTY
Valence
SciTegic.value.DoubleValue
151.129

@<SCITEGIC>MOL_PROPERTY
Coulomb
SciTegic.value.DoubleValue
142.546

@<SCITEGIC>MOL_PROPERTY
VdW
SciTegic.value.DoubleValue
-21.375

@<SCITEGIC>MOL_PROPERTY
VdW6
SciTegic.value.DoubleValue
-178.342

@<SCITEGIC>MOL_PROPERTY
VdW12
SciTegic.value.DoubleValue
156.967

@<SCITEGIC>MOL_PROPERTY
Bond
SciTegic.value.DoubleValue
5.032

@<SCITEGIC>MOL_PROPERTY
Angle
SciTegic.value.DoubleValue
14.765

@<SCITEGIC>MOL_PROPERTY
Pdih
SciTegic.value.DoubleValue
131.241

@<SCITEGIC>MOL_PROPERTY
Idih
SciTegic.value.DoubleValue
0.091

@<SCITEGIC>MOL_PROPERTY
Tether
SciTegic.value.DoubleValue
0.000

@<TRIPOS>MOLECULE
CD_guest-s19_fast_vm2_rndm.mol2 : feprocess host+ligand conformer 119
         143         148           2
SMALL
USER_CHARGES
 
@<TRIPOS>ATOM
       1    C1      16.626383   15.770396   22.674655 C.3        1 MOL1         0.2972
       2    H1      15.663542   15.831482   23.195308 H          1 MOL1         0.0751
       3    O1      16.837613   16.908615   21.815476 O.3        1 MOL1        -0.3740
       4    C2      17.775327   15.711856   23.709187 C.3        1 MOL1         0.1003
       5    H2      17.625388   14.805449   24.309356 H          1 MOL1         0.0783
       6    O2      17.743528   16.859397   24.578656 O.3        1 MOL1        -0.5519
       7    H3      18.171076   17.624777   24.111791 H          1 MOL1         0.3769
       8    C3      19.139550   15.591987   22.994279 C.3        1 MOL1         0.1053
       9    H4      19.300448   16.526553   22.450817 H          1 MOL1         0.0783
      10    O3      20.182360   15.393459   23.955687 O.3        1 MOL1        -0.5519
      11    H5      20.481716   16.308771   24.208901 H          1 MOL1         0.3769
      12    C4      19.179036   14.469923   21.928573 C.3        1 MOL1         0.1018
      13    H6      19.349555   13.505998   22.422455 H          1 MOL1         0.0783
      14    C5      17.888897   14.411339   21.062971 C.3        1 MOL1         0.1043
      15    H7      17.943252   15.239977   20.350171 H          1 MOL1         0.0783
      16    O4      16.694581   14.571457   21.870822 O.3        1 MOL1        -0.3740
      17    C6      17.755453   13.109853   20.235706 C.3        1 MOL1         0.0138
      18    H8      18.564209   13.078587   19.493187 H          1 MOL1         0.0794
      19    H9      16.809695   13.147922   19.679050 H          1 MOL1         0.0794
      20    O5      17.791639   11.932107   21.052601 O.3        1 MOL1        -0.5486
      21    H10     18.693766   11.839148   21.423441 H          1 MOL1         0.3769
      22    C7      14.858827   20.116090   20.191723 C.3        1 MOL1         0.2972
      23    H11     14.234127   20.845386   19.659991 H          1 MOL1         0.0751
      24    O6      16.074007   20.706766   20.690785 O.3        1 MOL1        -0.3740
      25    C8      14.104483   19.490002   21.388297 C.3        1 MOL1         0.1003
      26    H12     13.245607   18.942363   20.978841 H          1 MOL1         0.0783
      27    O7      13.626823   20.499194   22.291744 O.3        1 MOL1        -0.5519
      28    H13     14.403542   21.061980   22.541492 H          1 MOL1         0.3769
      29    C9      15.006002   18.472708   22.134035 C.3        1 MOL1         0.1053
      30    H14     15.807240   19.030511   22.639972 H          1 MOL1         0.0783
      31    O8      14.200316   17.793119   23.102298 O.3        1 MOL1        -0.5519
      32    H15     13.717571   18.503957   23.579136 H          1 MOL1         0.3769
      33    C10     15.671416   17.450966   21.163581 C.3        1 MOL1         0.1018
      34    H16     14.942812   16.666837   20.923100 H          1 MOL1         0.0783
      35    C11     16.190992   18.101935   19.847630 C.3        1 MOL1         0.1043
      36    H17     17.104225   18.655496   20.090441 H          1 MOL1         0.0783
      37    O9      15.213183   19.026862   19.315726 O.3        1 MOL1        -0.3740
      38    C12     16.577021   17.097835   18.732362 C.3        1 MOL1         0.0138
      39    H18     17.601601   16.751852   18.916788 H          1 MOL1         0.0794
      40    H19     16.597410   17.633538   17.773932 H          1 MOL1         0.0794
      41    O10     15.686716   15.977369   18.648286 O.3        1 MOL1        -0.5486
      42    H20     15.755303   15.479591   19.491168 H          1 MOL1         0.3769
      43    C13     18.319910   24.132386   20.973508 C.3        1 MOL1         0.2972
      44    H21     18.728155   25.150190   20.973588 H          1 MOL1         0.0751
      45    O11     19.376049   23.147366   21.050071 O.3        1 MOL1        -0.3740
      46    C14     17.296887   23.945770   22.126619 C.3        1 MOL1         0.1003
      47    H22     16.466676   24.636067   21.927690 H          1 MOL1         0.0783
      48    O12     17.856678   24.266956   23.408219 O.3        1 MOL1        -0.5519
      49    H23     18.510304   23.551715   23.615085 H          1 MOL1         0.3769
      50    C15     16.723286   22.508624   22.115220 C.3        1 MOL1         0.1053
      51    H24     17.536268   21.806155   22.344596 H          1 MOL1         0.0783
      52    O13     15.693990   22.401320   23.104690 O.3        1 MOL1        -0.5519
      53    H25     16.076041   22.801103   23.917299 H          1 MOL1         0.3769
      54    C16     16.152736   22.141454   20.722592 C.3        1 MOL1         0.1018
      55    H26     15.168252   22.614201   20.608771 H          1 MOL1         0.0783
      56    C17     17.091231   22.555574   19.554540 C.3        1 MOL1         0.1043
      57    H27     17.935316   21.856306   19.546593 H          1 MOL1         0.0783
      58    O14     17.594677   23.902366   19.747552 O.3        1 MOL1        -0.3740
      59    C18     16.419780   22.471276   18.163331 C.3        1 MOL1         0.0138
      60    H28     16.274427   21.411864   17.911769 H          1 MOL1         0.0794
      61    H29     17.107249   22.891801   17.417209 H          1 MOL1         0.0794
      62    O15     15.161497   23.156975   18.126881 O.3        1 MOL1        -0.5486
      63    H30     14.829674   23.120797   17.203243 H          1 MOL1         0.3769
      64    C19     23.230361   22.410954   22.469530 C.3        1 MOL1         0.2972
      65    H31     24.207461   22.476984   22.964261 H          1 MOL1         0.0751
      66    O16     23.181611   21.305849   21.538712 O.3        1 MOL1        -0.3740
      67    C20     22.096344   22.261313   23.519750 C.3        1 MOL1         0.1003
      68    H32     22.111478   23.165141   24.142196 H          1 MOL1         0.0783
      69    O17     22.300717   21.122601   24.366317 O.3        1 MOL1        -0.5519
      70    H33     23.215211   20.791971   24.208003 H          1 MOL1         0.3769
      71    C21     20.718590   22.194806   22.817086 C.3        1 MOL1         0.1053
      72    H34     20.706899   21.308479   22.175744 H          1 MOL1         0.0783
      73    O18     19.670468   22.099418   23.789002 O.3        1 MOL1        -0.5519
      74    H35     19.621050   21.134664   24.023226 H          1 MOL1         0.3769
      75    C22     20.508837   23.428680   21.903285 C.3        1 MOL1         0.1018
      76    H36     20.341831   24.310092   22.534597 H          1 MOL1         0.0783
      77    C23     21.734941   23.668361   20.975452 C.3        1 MOL1         0.1043
      78    H37     21.754136   22.868393   20.225292 H          1 MOL1         0.0783
      79    O19     22.969387   23.627970   21.736967 O.3        1 MOL1        -0.3740
      80    C24     21.678840   25.012722   20.210013 C.3        1 MOL1         0.0138
      81    H38     20.830678   24.986349   19.512445 H          1 MOL1         0.0794
      82    H39     22.590440   25.104053   19.604720 H          1 MOL1         0.0794
      83    O20     21.561151   26.141956   21.086435 O.3        1 MOL1        -0.5486
      84    H40     20.696626   26.091304   21.542840 H          1 MOL1         0.3769
      85    C25     25.118834   17.664713   20.946644 C.3        1 MOL1         0.2972
      86    H41     25.824979   16.853135   20.730590 H          1 MOL1         0.0751
      87    O21     23.760254   17.189587   21.037374 O.3        1 MOL1        -0.3740
      88    C26     25.490143   18.369479   22.273984 C.3        1 MOL1         0.1003
      89    H42     26.479023   18.824209   22.129684 H          1 MOL1         0.0783
      90    O22     25.569038   17.443895   23.367645 O.3        1 MOL1        -0.5519
      91    H43     24.872237   16.754812   23.223250 H          1 MOL1         0.3769
      92    C27     24.494666   19.510943   22.592179 C.3        1 MOL1         0.1053
      93    H44     23.507012   19.067500   22.786198 H          1 MOL1         0.0783
      94    O23     24.970828   20.190226   23.759024 O.3        1 MOL1        -0.5519
      95    H45     25.286475   19.469358   24.351920 H          1 MOL1         0.3769
      96    C28     24.371909   20.496065   21.393518 C.3        1 MOL1         0.1018
      97    H46     25.269820   21.125622   21.361459 H          1 MOL1         0.0783
      98    C29     24.224232   19.755829   20.030860 C.3        1 MOL1         0.1043
      99    H47     23.211665   19.335615   19.979316 H          1 MOL1         0.0783
     100    O24     25.181399   18.672801   19.917693 O.3        1 MOL1        -0.3740
     101    C30     24.406557   20.687299   18.805905 C.3        1 MOL1         0.0138
     102    H48     23.568330   21.394722   18.768477 H          1 MOL1         0.0794
     103    H49     24.355400   20.076309   17.895067 H          1 MOL1         0.0794
     104    O25     25.642541   21.412092   18.842260 O.3        1 MOL1        -0.5486
     105    H50     25.552387   22.119429   19.515605 H          1 MOL1         0.3769
     106    C31     21.272932   13.873162   20.709223 C.3        1 MOL1         0.2972
     107    H51     20.831453   12.889580   20.507301 H          1 MOL1         0.0751
     108    O26     20.253546   14.841541   21.034838 O.3        1 MOL1        -0.3740
     109    C32     22.348612   13.781365   21.827287 C.3        1 MOL1         0.1003
     110    H52     23.132554   13.111304   21.450626 H          1 MOL1         0.0783
     111    O27     21.828843   13.227077   23.045055 O.3        1 MOL1        -0.5519
     112    H53     21.233493   13.915468   23.435718 H          1 MOL1         0.3769
     113    C33     23.002796   15.160583   22.086685 C.3        1 MOL1         0.1053
     114    H54     22.245610   15.838366   22.502808 H          1 MOL1         0.0783
     115    O28     24.074852   14.993265   23.018421 O.3        1 MOL1        -0.5519
     116    H55     23.714639   14.411145   23.724176 H          1 MOL1         0.3769
     117    C34     23.532451   15.789536   20.774035 C.3        1 MOL1         0.1018
     118    H56     24.451588   15.269038   20.475076 H          1 MOL1         0.0783
     119    C35     22.494875   15.703232   19.620393 C.3        1 MOL1         0.1043
     120    H57     21.682392   16.408797   19.836364 H          1 MOL1         0.0783
     121    O29     21.949168   14.359499   19.529380 O.3        1 MOL1        -0.3740
     122    C36     23.087302   16.093547   18.245542 C.3        1 MOL1         0.0138
     123    H58     23.325001   17.166020   18.262906 H          1 MOL1         0.0794
     124    H59     22.319178   15.940522   17.475804 H          1 MOL1         0.0794
     125    O30     24.266102   15.340329   17.932200 O.3        1 MOL1        -0.5486
     126    H60     24.576529   15.628290   17.046389 H          1 MOL1         0.3769
     127    C1      20.283616   18.716828   23.154522 C.2        1 MOL1         0.6173
     128    O1      19.262863   19.206087   23.605802 O.co2      1 MOL1        -0.6755
     129    O2      21.056685   18.058405   23.823901 O.co2      1 MOL1        -0.6755
     130    C2      20.511893   18.734442   21.683068 C.2        1 MOL1        -0.1504
     131    H1      21.409445   18.228997   21.343384 H          1 MOL1         0.0814
     132    C3      19.671970   19.306005   20.790294 C.2        1 MOL1        -0.1394
     133    H2      18.770401   19.818196   21.124843 H          1 MOL1         0.0817
     134    C4      19.904888   19.284364   19.294971 C.3        1 MOL1        -0.1849
     135    H3      18.948515   19.198992   18.764303 H          1 MOL1         0.0736
     136    H4      20.492919   18.397835   19.024147 H          1 MOL1         0.0736
     137    C5      20.636181   20.554710   18.824111 C.3        1 MOL1        -0.1866
     138    H5      19.998192   21.432981   18.975415 H          1 MOL1         0.0738
     139    H6      21.522262   20.708968   19.446565 H          1 MOL1         0.0738
     140    C6      21.045864   20.465211   17.341224 C.3        1 MOL1        -0.2879
     141    H7      20.164683   20.334511   16.699833 H          1 MOL1         0.0750
     142    H8      21.561342   21.381468   17.026181 H          1 MOL1         0.0750
     143    H9      21.722536   19.617946   17.170857 H          1 MOL1         0.0750
@<TRIPOS>BOND
    1     1     2    1
    2     1     3    1
    3     1     4    1
    4     4     5    1
    5     4     6    1
    6     6     7    1
    7     4     8    1
    8     8     9    1
    9     8    10    1
   10    10    11    1
   11     8    12    1
   12    12    13    1
   13    12    14    1
   14    14    15    1
   15     1    16    1
   16    14    16    1
   17    14    17    1
   18    17    18    1
   19    17    19    1
   20    17    20    1
   21    20    21    1
   22    22    23    1
   23    22    24    1
   24    22    25    1
   25    25    26    1
   26    25    27    1
   27    27    28    1
   28    25    29    1
   29    29    30    1
   30    29    31    1
   31    31    32    1
   32     3    33    1
   33    29    33    1
   34    33    34    1
   35    33    35    1
   36    35    36    1
   37    22    37    1
   38    35    37    1
   39    35    38    1
   40    38    39    1
   41    38    40    1
   42    38    41    1
   43    41    42    1
   44    43    44    1
   45    43    45    1
   46    43    46    1
   47    46    47    1
   48    46    48    1
   49    48    49    1
   50    46    50    1
   51    50    51    1
   52    50    52    1
   53    52    53    1
   54    24    54    1
   55    50    54    1
   56    54    55    1
   57    54    56    1
   58    56    57    1
   59    43    58    1
   60    56    58    1
   61    56    59    1
   62    59    60    1
   63    59    61    1
   64    59    62    1
   65    62    63    1
   66    64    65    1
   67    64    66    1
   68    64    67    1
   69    67    68    1
   70    67    69    1
   71    69    70    1
   72    67    71    1
   73    71    72    1
   74    71    73    1
   75    73    74    1
   76    45    75    1
   77    71    75    1
   78    75    76    1
   79    75    77    1
   80    77    78    1
   81    64    79    1
   82    77    79    1
   83    77    80    1
   84    80    81    1
   85    80    82    1
   86    80    83    1
   87    83    84    1
   88    85    86    1
   89    85    87    1
   90    85    88    1
   91    88    89    1
   92    88    90    1
   93    90    91    1
   94    88    92    1
   95    92    93    1
   96    92    94    1
   97    94    95    1
   98    66    96    1
   99    92    96    1
  100    96    97    1
  101    96    98    1
  102    98    99    1
  103    85   100    1
  104    98   100    1
  105    98   101    1
  106   101   102    1
  107   101   103    1
  108   101   104    1
  109   104   105    1
  110   106   107    1
  111    12   108    1
  112   106   108    1
  113   106   109    1
  114   109   110    1
  115   109   111    1
  116   111   112    1
  117   109   113    1
  118   113   114    1
  119   113   115    1
  120   115   116    1
  121    87   117    1
  122   113   117    1
  123   117   118    1
  124   117   119    1
  125   119   120    1
  126   106   121    1
  127   119   121    1
  128   119   122    1
  129   122   123    1
  130   122   124    1
  131   122   125    1
  132   125   126    1
  133   127   128    1
  134   127   129    2
  135   127   130    1
  136   130   131    1
  137   130   132    2
  138   132   133    1
  139   132   134    1
  140   134   135    1
  141   134   136    1
  142   134   137    1
  143   137   138    1
  144   137   139    1
  145   137   140    1
  146   140   141    1
  147   140   142    1
  148   140   143    1
@<TRIPOS>SUBSTRUCTURE
       1 MOL1            1 RESIDUE      1      MOL     
       2 MOL1          143 RESIDUE      1      MOL     
@<SCITEGIC>MOL_PROPERTY
feprocess Rank
SciTegic.value.IntegerValue
119

@<SCITEGIC>MOL_PROPERTY
Conf_Id
SciTegic.value.IntegerValue
422

@<SCITEGIC>MOL_PROPERTY
Probability
SciTegic.value.DoubleValue
0.00

@<SCITEGIC>MOL_PROPERTY
G
SciTegic.value.DoubleValue
502.126

@<SCITEGIC>MOL_PROPERTY
E
SciTegic.value.DoubleValue
318.291

@<SCITEGIC>MOL_PROPERTY
-TS
SciTegic.value.DoubleValue
183.835

@<SCITEGIC>MOL_PROPERTY
U+W
SciTegic.value.DoubleValue
192.203

@<SCITEGIC>MOL_PROPERTY
U
SciTegic.value.DoubleValue
264.493

@<SCITEGIC>MOL_PROPERTY
W
SciTegic.value.DoubleValue
-72.290

@<SCITEGIC>MOL_PROPERTY
W(PB)
SciTegic.value.DoubleValue
-78.300

@<SCITEGIC>MOL_PROPERTY
W(SA)
SciTegic.value.DoubleValue
6.010

@<SCITEGIC>MOL_PROPERTY
Valence
SciTegic.value.DoubleValue
148.522

@<SCITEGIC>MOL_PROPERTY
Coulomb
SciTegic.value.DoubleValue
140.097

@<SCITEGIC>MOL_PROPERTY
VdW
SciTegic.value.DoubleValue
-24.126

@<SCITEGIC>MOL_PROPERTY
VdW6
SciTegic.value.DoubleValue
-184.409

@<SCITEGIC>MOL_PROPERTY
VdW12
SciTegic.value.DoubleValue
160.283

@<SCITEGIC>MOL_PROPERTY
Bond
SciTegic.value.DoubleValue
5.250

@<SCITEGIC>MOL_PROPERTY
Angle
SciTegic.value.DoubleValue
16.946

@<SCITEGIC>MOL_PROPERTY
Pdih
SciTegic.value.DoubleValue
126.261

@<SCITEGIC>MOL_PROPERTY
Idih
SciTegic.value.DoubleValue
0.064

@<SCITEGIC>MOL_PROPERTY
Tether
SciTegic.value.DoubleValue
0.000

@<TRIPOS>MOLECULE
CD_guest-s19_fast_vm2_rndm.mol2 : feprocess host+ligand conformer 120
         143         148           2
SMALL
USER_CHARGES
 
@<TRIPOS>ATOM
       1    C1      16.222819   15.239322   20.892605 C.3        1 MOL1         0.2972
       2    H1      15.202532   14.983780   20.580352 H          1 MOL1         0.0751
       3    O1      16.331577   16.617335   21.288715 O.3        1 MOL1        -0.3740
       4    C2      16.635374   14.380418   22.116593 C.3        1 MOL1         0.1003
       5    H2      16.566862   13.326062   21.818824 H          1 MOL1         0.0783
       6    O2      15.748946   14.617709   23.222249 O.3        1 MOL1        -0.5519
       7    H3      15.473273   15.567291   23.174739 H          1 MOL1         0.3769
       8    C3      18.101296   14.666825   22.526298 C.3        1 MOL1         0.1053
       9    H4      18.163104   15.700903   22.892871 H          1 MOL1         0.0783
      10    O3      18.495325   13.759415   23.560739 O.3        1 MOL1        -0.5519
      11    H5      17.740576   13.751807   24.191344 H          1 MOL1         0.3769
      12    C4      19.035107   14.525880   21.299887 C.3        1 MOL1         0.1018
      13    H6      19.062165   13.471720   20.993108 H          1 MOL1         0.0783
      14    C5      18.533829   15.378961   20.105454 C.3        1 MOL1         0.1043
      15    H7      18.575955   16.438043   20.393247 H          1 MOL1         0.0783
      16    O4      17.161868   15.007047   19.818354 O.3        1 MOL1        -0.3740
      17    C6      19.376791   15.224092   18.812764 C.3        1 MOL1         0.0138
      18    H8      20.188118   15.962340   18.839727 H          1 MOL1         0.0794
      19    H9      18.746762   15.477424   17.949811 H          1 MOL1         0.0794
      20    O5      19.928669   13.910700   18.651258 O.3        1 MOL1        -0.5486
      21    H10     20.602331   13.786084   19.359266 H          1 MOL1         0.3769
      22    C7      14.602922   20.351806   20.985472 C.3        1 MOL1         0.2972
      23    H11     13.953480   21.217994   20.806600 H          1 MOL1         0.0751
      24    O6      15.896891   20.744212   21.481240 O.3        1 MOL1        -0.3740
      25    C8      13.962319   19.424376   22.045425 C.3        1 MOL1         0.1003
      26    H12     12.994520   19.086104   21.653113 H          1 MOL1         0.0783
      27    O7      13.757603   20.139813   23.274613 O.3        1 MOL1        -0.5519
      28    H13     14.519146   20.764498   23.374436 H          1 MOL1         0.3769
      29    C9      14.846652   18.179235   22.287051 C.3        1 MOL1         0.1053
      30    H14     15.770517   18.511306   22.775412 H          1 MOL1         0.0783
      31    O8      14.160648   17.257419   23.140570 O.3        1 MOL1        -0.5519
      32    H15     13.811255   17.805264   23.878235 H          1 MOL1         0.3769
      33    C10     15.230642   17.481950   20.959184 C.3        1 MOL1         0.1018
      34    H16     14.356789   16.927454   20.593729 H          1 MOL1         0.0783
      35    C11     15.717948   18.482923   19.872107 C.3        1 MOL1         0.1043
      36    H17     16.700754   18.863908   20.176587 H          1 MOL1         0.0783
      37    O9      14.791566   19.594530   19.771465 O.3        1 MOL1        -0.3740
      38    C12     15.898612   17.862754   18.464462 C.3        1 MOL1         0.0138
      39    H18     16.833363   17.287389   18.451221 H          1 MOL1         0.0794
      40    H19     16.014079   18.678411   17.738510 H          1 MOL1         0.0794
      41    O10     14.806239   17.019407   18.082026 O.3        1 MOL1        -0.5486
      42    H20     15.012116   16.114693   18.401035 H          1 MOL1         0.3769
      43    C13     18.455012   24.043489   21.587765 C.3        1 MOL1         0.2972
      44    H21     18.856028   25.062485   21.517266 H          1 MOL1         0.0751
      45    O11     19.481011   23.090763   21.930009 O.3        1 MOL1        -0.3740
      46    C14     17.371072   23.989091   22.693003 C.3        1 MOL1         0.1003
      47    H22     16.592614   24.717223   22.430685 H          1 MOL1         0.0783
      48    O12     17.939268   24.337654   23.965886 O.3        1 MOL1        -0.5519
      49    H23     18.868634   23.996754   23.969094 H          1 MOL1         0.3769
      50    C15     16.714994   22.590281   22.757626 C.3        1 MOL1         0.1053
      51    H24     17.471428   21.879126   23.113013 H          1 MOL1         0.0783
      52    O13     15.607693   22.618176   23.665474 O.3        1 MOL1        -0.5519
      53    H25     15.950035   23.066271   24.470410 H          1 MOL1         0.3769
      54    C16     16.237636   22.135791   21.357673 C.3        1 MOL1         0.1018
      55    H26     15.373976   22.749929   21.070913 H          1 MOL1         0.0783
      56    C17     17.360115   22.283117   20.293239 C.3        1 MOL1         0.1043
      57    H27     18.168952   21.587232   20.550240 H          1 MOL1         0.0783
      58    O14     17.865620   23.641742   20.331362 O.3        1 MOL1        -0.3740
      59    C18     16.934055   21.955264   18.839636 C.3        1 MOL1         0.0138
      60    H28     17.022170   20.871888   18.687873 H          1 MOL1         0.0794
      61    H29     17.643882   22.432628   18.151202 H          1 MOL1         0.0794
      62    O15     15.599332   22.372822   18.534417 O.3        1 MOL1        -0.5486
      63    H30     15.010449   21.619953   18.765954 H          1 MOL1         0.3769
      64    C19     23.660386   22.701280   21.705772 C.3        1 MOL1         0.2972
      65    H31     24.723401   22.947685   21.590665 H          1 MOL1         0.0751
      66    O16     23.478172   21.280975   21.880930 O.3        1 MOL1        -0.3740
      67    C20     23.089915   23.458873   22.936998 C.3        1 MOL1         0.1003
      68    H32     23.241426   24.528972   22.745254 H          1 MOL1         0.0783
      69    O17     23.783660   23.110779   24.143116 O.3        1 MOL1        -0.5519
      70    H33     23.575057   22.156098   24.335214 H          1 MOL1         0.3769
      71    C21     21.569690   23.224703   23.096083 C.3        1 MOL1         0.1053
      72    H34     21.402472   22.168608   23.346121 H          1 MOL1         0.0783
      73    O18     21.060984   24.061657   24.141516 O.3        1 MOL1        -0.5519
      74    H35     21.680871   23.934236   24.893623 H          1 MOL1         0.3769
      75    C22     20.839155   23.544140   21.772353 C.3        1 MOL1         0.1018
      76    H36     20.893970   24.628325   21.608046 H          1 MOL1         0.0783
      77    C23     21.491833   22.808535   20.569798 C.3        1 MOL1         0.1043
      78    H37     21.356685   21.728932   20.718900 H          1 MOL1         0.0783
      79    O19     22.910984   23.115997   20.540360 O.3        1 MOL1        -0.3740
      80    C24     20.888143   23.161256   19.184937 C.3        1 MOL1         0.0138
      81    H38     20.019663   22.513754   19.009741 H          1 MOL1         0.0794
      82    H39     21.625637   22.923264   18.407549 H          1 MOL1         0.0794
      83    O20     20.493675   24.532419   19.070733 O.3        1 MOL1        -0.5486
      84    H40     19.555046   24.577605   19.362953 H          1 MOL1         0.3769
      85    C25     25.019966   17.590323   20.644236 C.3        1 MOL1         0.2972
      86    H41     25.608833   16.772503   20.209391 H          1 MOL1         0.0751
      87    O21     23.728016   17.133692   21.092331 O.3        1 MOL1        -0.3740
      88    C26     25.771230   18.265783   21.820906 C.3        1 MOL1         0.1003
      89    H42     26.687989   18.709057   21.411688 H          1 MOL1         0.0783
      90    O22     26.133768   17.299501   22.819092 O.3        1 MOL1        -0.5519
      91    H43     25.293807   16.994324   23.243737 H          1 MOL1         0.3769
      92    C27     24.907691   19.415968   22.404942 C.3        1 MOL1         0.1053
      93    H44     23.998875   18.970857   22.831298 H          1 MOL1         0.0783
      94    O23     25.619164   20.117154   23.429310 O.3        1 MOL1        -0.5519
      95    H45     24.913382   20.423739   24.055726 H          1 MOL1         0.3769
      96    C28     24.482607   20.418161   21.295628 C.3        1 MOL1         0.1018
      97    H46     25.374572   20.982432   20.994182 H          1 MOL1         0.0783
      98    C29     23.889794   19.682687   20.053942 C.3        1 MOL1         0.1043
      99    H47     22.918304   19.258807   20.341009 H          1 MOL1         0.0783
     100    O24     24.786234   18.613760   19.656112 O.3        1 MOL1        -0.3740
     101    C30     23.645813   20.555583   18.797914 C.3        1 MOL1         0.0138
     102    H48     22.631435   20.963766   18.851525 H          1 MOL1         0.0794
     103    H49     23.672740   19.906099   17.912728 H          1 MOL1         0.0794
     104    O25     24.593228   21.618267   18.650036 O.3        1 MOL1        -0.5486
     105    H50     24.267613   22.359621   19.211313 H          1 MOL1         0.3769
     106    C31     21.303404   13.980841   21.985556 C.3        1 MOL1         0.2972
     107    H51     20.815856   13.028101   22.230287 H          1 MOL1         0.0751
     108    O26     20.339319   15.004870   21.669436 O.3        1 MOL1        -0.3740
     109    C32     22.151241   14.457925   23.186401 C.3        1 MOL1         0.1003
     110    H52     22.928841   13.703633   23.363605 H          1 MOL1         0.0783
     111    O27     21.334196   14.584384   24.361713 O.3        1 MOL1        -0.5519
     112    H53     20.393466   14.537113   24.062447 H          1 MOL1         0.3769
     113    C33     22.847540   15.798333   22.863962 C.3        1 MOL1         0.1053
     114    H54     22.071313   16.567423   22.790519 H          1 MOL1         0.0783
     115    O28     23.745901   16.126559   23.927661 O.3        1 MOL1        -0.5519
     116    H55     23.203991   16.065120   24.745608 H          1 MOL1         0.3769
     117    C34     23.603859   15.761123   21.509909 C.3        1 MOL1         0.1018
     118    H56     24.579545   15.279667   21.657931 H          1 MOL1         0.0783
     119    C35     22.810045   15.046743   20.377280 C.3        1 MOL1         0.1043
     120    H57     22.027876   15.738816   20.042810 H          1 MOL1         0.0783
     121    O29     22.181139   13.828587   20.851787 O.3        1 MOL1        -0.3740
     122    C36     23.671175   14.706713   19.137687 C.3        1 MOL1         0.0138
     123    H58     23.934725   15.643843   18.628947 H          1 MOL1         0.0794
     124    H59     23.063031   14.116659   18.438795 H          1 MOL1         0.0794
     125    O30     24.862621   13.992111   19.487941 O.3        1 MOL1        -0.5486
     126    H60     25.317633   13.743630   18.653730 H          1 MOL1         0.3769
     127    C1      22.689545   19.509713   25.396288 C.2        1 MOL1         0.6173
     128    O1      23.009661   19.086828   26.490174 O.co2      1 MOL1        -0.6755
     129    O2      23.206069   20.489407   24.886851 O.co2      1 MOL1        -0.6755
     130    C2      21.620802   18.772228   24.666467 C.2        1 MOL1        -0.1504
     131    H1      21.202237   17.912668   25.184340 H          1 MOL1         0.0814
     132    C3      21.163589   19.114754   23.440559 C.2        1 MOL1        -0.1394
     133    H2      21.572757   19.971769   22.914151 H          1 MOL1         0.0817
     134    C4      20.068372   18.370224   22.707275 C.3        1 MOL1        -0.1849
     135    H3      19.910910   17.379484   23.152878 H          1 MOL1         0.0736
     136    H4      20.382401   18.196329   21.669876 H          1 MOL1         0.0736
     137    C5      18.739983   19.151649   22.712446 C.3        1 MOL1        -0.1866
     138    H5      18.903987   20.157274   22.304594 H          1 MOL1         0.0738
     139    H6      18.029567   18.649054   22.046525 H          1 MOL1         0.0738
     140    C6      18.125363   19.252377   24.124935 C.3        1 MOL1        -0.2879
     141    H7      17.945613   18.254272   24.544524 H          1 MOL1         0.0750
     142    H8      18.792006   19.795963   24.806564 H          1 MOL1         0.0750
     143    H9      17.167430   19.785771   24.098352 H          1 MOL1         0.0750
@<TRIPOS>BOND
    1     1     2    1
    2     1     3    1
    3     1     4    1
    4     4     5    1
    5     4     6    1
    6     6     7    1
    7     4     8    1
    8     8     9    1
    9     8    10    1
   10    10    11    1
   11     8    12    1
   12    12    13    1
   13    12    14    1
   14    14    15    1
   15     1    16    1
   16    14    16    1
   17    14    17    1
   18    17    18    1
   19    17    19    1
   20    17    20    1
   21    20    21    1
   22    22    23    1
   23    22    24    1
   24    22    25    1
   25    25    26    1
   26    25    27    1
   27    27    28    1
   28    25    29    1
   29    29    30    1
   30    29    31    1
   31    31    32    1
   32     3    33    1
   33    29    33    1
   34    33    34    1
   35    33    35    1
   36    35    36    1
   37    22    37    1
   38    35    37    1
   39    35    38    1
   40    38    39    1
   41    38    40    1
   42    38    41    1
   43    41    42    1
   44    43    44    1
   45    43    45    1
   46    43    46    1
   47    46    47    1
   48    46    48    1
   49    48    49    1
   50    46    50    1
   51    50    51    1
   52    50    52    1
   53    52    53    1
   54    24    54    1
   55    50    54    1
   56    54    55    1
   57    54    56    1
   58    56    57    1
   59    43    58    1
   60    56    58    1
   61    56    59    1
   62    59    60    1
   63    59    61    1
   64    59    62    1
   65    62    63    1
   66    64    65    1
   67    64    66    1
   68    64    67    1
   69    67    68    1
   70    67    69    1
   71    69    70    1
   72    67    71    1
   73    71    72    1
   74    71    73    1
   75    73    74    1
   76    45    75    1
   77    71    75    1
   78    75    76    1
   79    75    77    1
   80    77    78    1
   81    64    79    1
   82    77    79    1
   83    77    80    1
   84    80    81    1
   85    80    82    1
   86    80    83    1
   87    83    84    1
   88    85    86    1
   89    85    87    1
   90    85    88    1
   91    88    89    1
   92    88    90    1
   93    90    91    1
   94    88    92    1
   95    92    93    1
   96    92    94    1
   97    94    95    1
   98    66    96    1
   99    92    96    1
  100    96    97    1
  101    96    98    1
  102    98    99    1
  103    85   100    1
  104    98   100    1
  105    98   101    1
  106   101   102    1
  107   101   103    1
  108   101   104    1
  109   104   105    1
  110   106   107    1
  111    12   108    1
  112   106   108    1
  113   106   109    1
  114   109   110    1
  115   109   111    1
  116   111   112    1
  117   109   113    1
  118   113   114    1
  119   113   115    1
  120   115   116    1
  121    87   117    1
  122   113   117    1
  123   117   118    1
  124   117   119    1
  125   119   120    1
  126   106   121    1
  127   119   121    1
  128   119   122    1
  129   122   123    1
  130   122   124    1
  131   122   125    1
  132   125   126    1
  133   127   128    1
  134   127   129    2
  135   127   130    1
  136   130   131    1
  137   130   132    2
  138   132   133    1
  139   132   134    1
  140   134   135    1
  141   134   136    1
  142   134   137    1
  143   137   138    1
  144   137   139    1
  145   137   140    1
  146   140   141    1
  147   140   142    1
  148   140   143    1
@<TRIPOS>SUBSTRUCTURE
       1 MOL1            1 RESIDUE      1      MOL     
       2 MOL1          143 RESIDUE      1      MOL     
@<SCITEGIC>MOL_PROPERTY
feprocess Rank
SciTegic.value.IntegerValue
120

@<SCITEGIC>MOL_PROPERTY
Conf_Id
SciTegic.value.IntegerValue
645

@<SCITEGIC>MOL_PROPERTY
Probability
SciTegic.value.DoubleValue
0.00

@<SCITEGIC>MOL_PROPERTY
G
SciTegic.value.DoubleValue
502.128

@<SCITEGIC>MOL_PROPERTY
E
SciTegic.value.DoubleValue
320.409

@<SCITEGIC>MOL_PROPERTY
-TS
SciTegic.value.DoubleValue
181.718

@<SCITEGIC>MOL_PROPERTY
U+W
SciTegic.value.DoubleValue
194.321

@<SCITEGIC>MOL_PROPERTY
U
SciTegic.value.DoubleValue
275.740

@<SCITEGIC>MOL_PROPERTY
W
SciTegic.value.DoubleValue
-81.419

@<SCITEGIC>MOL_PROPERTY
W(PB)
SciTegic.value.DoubleValue
-87.455

@<SCITEGIC>MOL_PROPERTY
W(SA)
SciTegic.value.DoubleValue
6.036

@<SCITEGIC>MOL_PROPERTY
Valence
SciTegic.value.DoubleValue
152.796

@<SCITEGIC>MOL_PROPERTY
Coulomb
SciTegic.value.DoubleValue
147.485

@<SCITEGIC>MOL_PROPERTY
VdW
SciTegic.value.DoubleValue
-24.540

@<SCITEGIC>MOL_PROPERTY
VdW6
SciTegic.value.DoubleValue
-179.925

@<SCITEGIC>MOL_PROPERTY
VdW12
SciTegic.value.DoubleValue
155.385

@<SCITEGIC>MOL_PROPERTY
Bond
SciTegic.value.DoubleValue
4.835

@<SCITEGIC>MOL_PROPERTY
Angle
SciTegic.value.DoubleValue
14.056

@<SCITEGIC>MOL_PROPERTY
Pdih
SciTegic.value.DoubleValue
133.904

@<SCITEGIC>MOL_PROPERTY
Idih
SciTegic.value.DoubleValue
0.000

@<SCITEGIC>MOL_PROPERTY
Tether
SciTegic.value.DoubleValue
0.000

@<TRIPOS>MOLECULE
CD_guest-s19_fast_vm2_rndm.mol2 : feprocess host+ligand conformer 121
         143         148           2
SMALL
USER_CHARGES
 
@<TRIPOS>ATOM
       1    C1      16.386896   15.310780   22.088465 C.3        1 MOL1         0.2972
       2    H1      15.347067   15.187059   22.418303 H          1 MOL1         0.0751
       3    O1      16.672941   16.673629   21.725557 O.3        1 MOL1        -0.3740
       4    C2      17.352722   14.899142   23.223572 C.3        1 MOL1         0.1003
       5    H2      17.179255   13.835862   23.434627 H          1 MOL1         0.0783
       6    O2      17.100306   15.665151   24.412834 O.3        1 MOL1        -0.5519
       7    H3      16.501168   16.408671   24.156903 H          1 MOL1         0.3769
       8    C3      18.822227   15.065708   22.776243 C.3        1 MOL1         0.1053
       9    H4      19.021255   16.138983   22.649484 H          1 MOL1         0.0783
      10    O3      19.674954   14.533656   23.794362 O.3        1 MOL1        -0.5519
      11    H5      19.325591   14.910486   24.632903 H          1 MOL1         0.3769
      12    C4      19.090958   14.356745   21.422582 C.3        1 MOL1         0.1018
      13    H6      19.175788   13.276610   21.600486 H          1 MOL1         0.0783
      14    C5      17.985918   14.633849   20.361762 C.3        1 MOL1         0.1043
      15    H7      18.111340   15.667781   20.017115 H          1 MOL1         0.0783
      16    O4      16.662030   14.485347   20.938124 O.3        1 MOL1        -0.3740
      17    C6      18.079900   13.725014   19.112871 C.3        1 MOL1         0.0138
      18    H8      18.963362   14.021394   18.531441 H          1 MOL1         0.0794
      19    H9      17.199461   13.904734   18.481231 H          1 MOL1         0.0794
      20    O5      18.169522   12.337772   19.459897 O.3        1 MOL1        -0.5486
      21    H10     18.139751   11.819082   18.626384 H          1 MOL1         0.3769
      22    C7      14.705854   20.294553   21.146011 C.3        1 MOL1         0.2972
      23    H11     13.959213   21.068613   20.927233 H          1 MOL1         0.0751
      24    O6      16.000715   20.869833   21.407304 O.3        1 MOL1        -0.3740
      25    C8      14.290560   19.510422   22.416097 C.3        1 MOL1         0.1003
      26    H12     13.313689   19.049864   22.219407 H          1 MOL1         0.0783
      27    O7      14.179478   20.400465   23.537208 O.3        1 MOL1        -0.5519
      28    H13     14.913664   21.053557   23.451134 H          1 MOL1         0.3769
      29    C9      15.303243   18.380456   22.719582 C.3        1 MOL1         0.1053
      30    H14     16.265794   18.837434   22.983689 H          1 MOL1         0.0783
      31    O8      14.826600   17.587584   23.811367 O.3        1 MOL1        -0.5519
      32    H15     14.509621   18.238026   24.477402 H          1 MOL1         0.3769
      33    C10     15.525313   17.498233   21.469653 C.3        1 MOL1         0.1018
      34    H16     14.620473   16.903681   21.286311 H          1 MOL1         0.0783
      35    C11     15.843420   18.344059   20.208761 C.3        1 MOL1         0.1043
      36    H17     16.816833   18.828299   20.362157 H          1 MOL1         0.0783
      37    O9      14.823613   19.362902   20.045996 O.3        1 MOL1        -0.3740
      38    C12     15.950595   17.516756   18.899650 C.3        1 MOL1         0.0138
      39    H18     16.993712   17.198685   18.776780 H          1 MOL1         0.0794
      40    H19     15.715627   18.170250   18.049034 H          1 MOL1         0.0794
      41    O10     15.097364   16.365230   18.883109 O.3        1 MOL1        -0.5486
      42    H20     15.464286   15.719651   19.530364 H          1 MOL1         0.3769
      43    C13     18.557473   23.965680   20.385619 C.3        1 MOL1         0.2972
      44    H21     19.048812   24.865499   19.993655 H          1 MOL1         0.0751
      45    O11     19.512523   23.044145   20.951980 O.3        1 MOL1        -0.3740
      46    C14     17.478543   24.324874   21.442242 C.3        1 MOL1         0.1003
      47    H22     16.712120   24.921729   20.930869 H          1 MOL1         0.0783
      48    O12     18.018842   25.097099   22.524704 O.3        1 MOL1        -0.5519
      49    H23     18.678774   24.521598   22.987916 H          1 MOL1         0.3769
      50    C15     16.802922   23.038278   21.973531 C.3        1 MOL1         0.1053
      51    H24     17.559562   22.463428   22.524555 H          1 MOL1         0.0783
      52    O13     15.725593   23.386168   22.850104 O.3        1 MOL1        -0.5519
      53    H25     16.091553   24.071889   23.450811 H          1 MOL1         0.3769
      54    C16     16.271712   22.154885   20.814869 C.3        1 MOL1         0.1018
      55    H26     15.363565   22.626432   20.417440 H          1 MOL1         0.0783
      56    C17     17.318025   21.975905   19.672725 C.3        1 MOL1         0.1043
      57    H27     18.119950   21.325197   20.045432 H          1 MOL1         0.0783
      58    O14     17.875279   23.268560   19.321546 O.3        1 MOL1        -0.3740
      59    C18     16.785310   21.322255   18.371273 C.3        1 MOL1         0.0138
      60    H28     16.925199   20.237543   18.442750 H          1 MOL1         0.0794
      61    H29     17.406277   21.662390   17.531729 H          1 MOL1         0.0794
      62    O15     15.408508   21.613021   18.108484 O.3        1 MOL1        -0.5486
      63    H30     14.882082   20.958448   18.622111 H          1 MOL1         0.3769
      64    C19     23.330230   22.596383   22.418686 C.3        1 MOL1         0.2972
      65    H31     24.343092   22.707589   22.827650 H          1 MOL1         0.0751
      66    O16     23.061938   21.235057   22.031667 O.3        1 MOL1        -0.3740
      67    C20     22.288271   23.020818   23.479631 C.3        1 MOL1         0.1003
      68    H32     22.460601   24.081327   23.704928 H          1 MOL1         0.0783
      69    O17     22.442520   22.252479   24.682859 O.3        1 MOL1        -0.5519
      70    H33     22.940011   21.434968   24.440734 H          1 MOL1         0.3769
      71    C21     20.853367   22.878172   22.926299 C.3        1 MOL1         0.1053
      72    H34     20.646911   21.808284   22.782395 H          1 MOL1         0.0783
      73    O18     19.936056   23.423857   23.878623 O.3        1 MOL1        -0.5519
      74    H35     20.200539   23.020988   24.735553 H          1 MOL1         0.3769
      75    C22     20.695388   23.596123   21.560743 C.3        1 MOL1         0.1018
      76    H36     20.607320   24.676725   21.734805 H          1 MOL1         0.0783
      77    C23     21.871020   23.306024   20.583427 C.3        1 MOL1         0.1043
      78    H37     21.752980   22.275619   20.227186 H          1 MOL1         0.0783
      79    O19     23.152762   23.428704   21.253558 O.3        1 MOL1        -0.3740
      80    C24     21.880338   24.220495   19.335186 C.3        1 MOL1         0.0138
      81    H38     21.035711   23.940209   18.691362 H          1 MOL1         0.0794
      82    H39     22.800419   24.029521   18.766468 H          1 MOL1         0.0794
      83    O20     21.787258   25.607563   19.681947 O.3        1 MOL1        -0.5486
      84    H40     21.884078   26.128937   18.855216 H          1 MOL1         0.3769
      85    C25     25.120298   17.654541   21.436018 C.3        1 MOL1         0.2972
      86    H41     25.888647   16.902262   21.217446 H          1 MOL1         0.0751
      87    O21     23.838286   17.035606   21.683685 O.3        1 MOL1        -0.3740
      88    C26     25.531894   18.467651   22.690980 C.3        1 MOL1         0.1003
      89    H42     26.455485   19.003034   22.436071 H          1 MOL1         0.0783
      90    O22     25.808427   17.603718   23.804205 O.3        1 MOL1        -0.5519
      91    H43     24.942981   17.287470   24.175400 H          1 MOL1         0.3769
      92    C27     24.448807   19.528431   23.011692 C.3        1 MOL1         0.1053
      93    H44     23.500221   19.015305   23.209775 H          1 MOL1         0.0783
      94    O23     24.817253   20.311968   24.151841 O.3        1 MOL1        -0.5519
      95    H45     24.659347   19.712610   24.929115 H          1 MOL1         0.3769
      96    C28     24.228167   20.431781   21.778076 C.3        1 MOL1         0.1018
      97    H46     25.125348   21.045370   21.621844 H          1 MOL1         0.0783
      98    C29     23.951078   19.594456   20.499401 C.3        1 MOL1         0.1043
      99    H47     22.983431   19.091421   20.627665 H          1 MOL1         0.0783
     100    O24     24.988245   18.589910   20.339050 O.3        1 MOL1        -0.3740
     101    C30     23.860521   20.437125   19.198494 C.3        1 MOL1         0.0138
     102    H48     22.814654   20.733843   19.050502 H          1 MOL1         0.0794
     103    H49     24.132398   19.801118   18.345802 H          1 MOL1         0.0794
     104    O25     24.691229   21.605187   19.218016 O.3        1 MOL1        -0.5486
     105    H50     24.311342   22.226240   19.882041 H          1 MOL1         0.3769
     106    C31     21.301746   14.002539   20.393117 C.3        1 MOL1         0.2972
     107    H51     20.832423   13.119540   19.940821 H          1 MOL1         0.0751
     108    O26     20.312420   14.920976   20.904946 O.3        1 MOL1        -0.3740
     109    C32     22.286647   13.596652   21.520076 C.3        1 MOL1         0.1003
     110    H52     23.076343   12.991264   21.057026 H          1 MOL1         0.0783
     111    O27     21.628150   12.805722   22.521783 O.3        1 MOL1        -0.5519
     112    H53     21.031878   13.417944   23.020273 H          1 MOL1         0.3769
     113    C33     22.953820   14.856909   22.130846 C.3        1 MOL1         0.1053
     114    H54     22.176403   15.431907   22.652661 H          1 MOL1         0.0783
     115    O28     23.971878   14.472080   23.060841 O.3        1 MOL1        -0.5519
     116    H55     23.943682   15.157950   23.779242 H          1 MOL1         0.3769
     117    C34     23.580172   15.768074   21.037531 C.3        1 MOL1         0.1018
     118    H56     24.507734   15.290499   20.696317 H          1 MOL1         0.0783
     119    C35     22.622146   15.985655   19.823794 C.3        1 MOL1         0.1043
     120    H57     21.804793   16.642547   20.148994 H          1 MOL1         0.0783
     121    O29     22.073983   14.711047   19.403926 O.3        1 MOL1        -0.3740
     122    C36     23.251740   16.640593   18.567295 C.3        1 MOL1         0.0138
     123    H58     23.120615   17.725790   18.634905 H          1 MOL1         0.0794
     124    H59     22.684668   16.315221   17.684809 H          1 MOL1         0.0794
     125    O30     24.638084   16.329546   18.394679 O.3        1 MOL1        -0.5486
     126    H60     25.137849   16.989091   18.927639 H          1 MOL1         0.3769
     127    C1      22.915966   17.530844   25.281640 C.2        1 MOL1         0.6173
     128    O1      23.451453   16.497221   24.930554 O.co2      1 MOL1        -0.6755
     129    O2      23.529454   18.425874   25.833204 O.co2      1 MOL1        -0.6755
     130    C2      21.506655   17.754331   24.859433 C.2        1 MOL1        -0.1504
     131    H1      21.030612   16.929977   24.335158 H          1 MOL1         0.0814
     132    C3      20.832886   18.905095   25.081554 C.2        1 MOL1        -0.1394
     133    H2      21.314208   19.735505   25.597950 H          1 MOL1         0.0817
     134    C4      19.402013   19.139533   24.644885 C.3        1 MOL1        -0.1849
     135    H3      18.826603   18.207125   24.725976 H          1 MOL1         0.0736
     136    H4      19.382362   19.433571   23.587063 H          1 MOL1         0.0736
     137    C5      18.730829   20.234440   25.500321 C.3        1 MOL1        -0.1866
     138    H5      18.765056   19.946429   26.559986 H          1 MOL1         0.0738
     139    H6      19.296329   21.170389   25.407414 H          1 MOL1         0.0738
     140    C6      17.268009   20.477773   25.083532 C.3        1 MOL1        -0.2879
     141    H7      17.206397   20.754595   24.024801 H          1 MOL1         0.0750
     142    H8      16.662464   19.576791   25.243374 H          1 MOL1         0.0750
     143    H9      16.826759   21.291611   25.672958 H          1 MOL1         0.0750
@<TRIPOS>BOND
    1     1     2    1
    2     1     3    1
    3     1     4    1
    4     4     5    1
    5     4     6    1
    6     6     7    1
    7     4     8    1
    8     8     9    1
    9     8    10    1
   10    10    11    1
   11     8    12    1
   12    12    13    1
   13    12    14    1
   14    14    15    1
   15     1    16    1
   16    14    16    1
   17    14    17    1
   18    17    18    1
   19    17    19    1
   20    17    20    1
   21    20    21    1
   22    22    23    1
   23    22    24    1
   24    22    25    1
   25    25    26    1
   26    25    27    1
   27    27    28    1
   28    25    29    1
   29    29    30    1
   30    29    31    1
   31    31    32    1
   32     3    33    1
   33    29    33    1
   34    33    34    1
   35    33    35    1
   36    35    36    1
   37    22    37    1
   38    35    37    1
   39    35    38    1
   40    38    39    1
   41    38    40    1
   42    38    41    1
   43    41    42    1
   44    43    44    1
   45    43    45    1
   46    43    46    1
   47    46    47    1
   48    46    48    1
   49    48    49    1
   50    46    50    1
   51    50    51    1
   52    50    52    1
   53    52    53    1
   54    24    54    1
   55    50    54    1
   56    54    55    1
   57    54    56    1
   58    56    57    1
   59    43    58    1
   60    56    58    1
   61    56    59    1
   62    59    60    1
   63    59    61    1
   64    59    62    1
   65    62    63    1
   66    64    65    1
   67    64    66    1
   68    64    67    1
   69    67    68    1
   70    67    69    1
   71    69    70    1
   72    67    71    1
   73    71    72    1
   74    71    73    1
   75    73    74    1
   76    45    75    1
   77    71    75    1
   78    75    76    1
   79    75    77    1
   80    77    78    1
   81    64    79    1
   82    77    79    1
   83    77    80    1
   84    80    81    1
   85    80    82    1
   86    80    83    1
   87    83    84    1
   88    85    86    1
   89    85    87    1
   90    85    88    1
   91    88    89    1
   92    88    90    1
   93    90    91    1
   94    88    92    1
   95    92    93    1
   96    92    94    1
   97    94    95    1
   98    66    96    1
   99    92    96    1
  100    96    97    1
  101    96    98    1
  102    98    99    1
  103    85   100    1
  104    98   100    1
  105    98   101    1
  106   101   102    1
  107   101   103    1
  108   101   104    1
  109   104   105    1
  110   106   107    1
  111    12   108    1
  112   106   108    1
  113   106   109    1
  114   109   110    1
  115   109   111    1
  116   111   112    1
  117   109   113    1
  118   113   114    1
  119   113   115    1
  120   115   116    1
  121    87   117    1
  122   113   117    1
  123   117   118    1
  124   117   119    1
  125   119   120    1
  126   106   121    1
  127   119   121    1
  128   119   122    1
  129   122   123    1
  130   122   124    1
  131   122   125    1
  132   125   126    1
  133   127   128    1
  134   127   129    2
  135   127   130    1
  136   130   131    1
  137   130   132    2
  138   132   133    1
  139   132   134    1
  140   134   135    1
  141   134   136    1
  142   134   137    1
  143   137   138    1
  144   137   139    1
  145   137   140    1
  146   140   141    1
  147   140   142    1
  148   140   143    1
@<TRIPOS>SUBSTRUCTURE
       1 MOL1            1 RESIDUE      1      MOL     
       2 MOL1          143 RESIDUE      1      MOL     
@<SCITEGIC>MOL_PROPERTY
feprocess Rank
SciTegic.value.IntegerValue
121

@<SCITEGIC>MOL_PROPERTY
Conf_Id
SciTegic.value.IntegerValue
321

@<SCITEGIC>MOL_PROPERTY
Probability
SciTegic.value.DoubleValue
0.00

@<SCITEGIC>MOL_PROPERTY
G
SciTegic.value.DoubleValue
502.135

@<SCITEGIC>MOL_PROPERTY
E
SciTegic.value.DoubleValue
319.629

@<SCITEGIC>MOL_PROPERTY
-TS
SciTegic.value.DoubleValue
182.506

@<SCITEGIC>MOL_PROPERTY
U+W
SciTegic.value.DoubleValue
193.541

@<SCITEGIC>MOL_PROPERTY
U
SciTegic.value.DoubleValue
268.618

@<SCITEGIC>MOL_PROPERTY
W
SciTegic.value.DoubleValue
-75.077

@<SCITEGIC>MOL_PROPERTY
W(PB)
SciTegic.value.DoubleValue
-81.182

@<SCITEGIC>MOL_PROPERTY
W(SA)
SciTegic.value.DoubleValue
6.105

@<SCITEGIC>MOL_PROPERTY
Valence
SciTegic.value.DoubleValue
150.437

@<SCITEGIC>MOL_PROPERTY
Coulomb
SciTegic.value.DoubleValue
136.722

@<SCITEGIC>MOL_PROPERTY
VdW
SciTegic.value.DoubleValue
-18.540

@<SCITEGIC>MOL_PROPERTY
VdW6
SciTegic.value.DoubleValue
-175.632

@<SCITEGIC>MOL_PROPERTY
VdW12
SciTegic.value.DoubleValue
157.092

@<SCITEGIC>MOL_PROPERTY
Bond
SciTegic.value.DoubleValue
5.101

@<SCITEGIC>MOL_PROPERTY
Angle
SciTegic.value.DoubleValue
14.759

@<SCITEGIC>MOL_PROPERTY
Pdih
SciTegic.value.DoubleValue
130.535

@<SCITEGIC>MOL_PROPERTY
Idih
SciTegic.value.DoubleValue
0.041

@<SCITEGIC>MOL_PROPERTY
Tether
SciTegic.value.DoubleValue
0.000

@<TRIPOS>MOLECULE
CD_guest-s19_fast_vm2_rndm.mol2 : feprocess host+ligand conformer 122
         143         148           2
SMALL
USER_CHARGES
 
@<TRIPOS>ATOM
       1    C1      16.094622   15.111226   21.144501 C.3        1 MOL1         0.2972
       2    H1      15.045845   14.935073   20.873809 H          1 MOL1         0.0751
       3    O1      16.327824   16.492836   21.483919 O.3        1 MOL1        -0.3740
       4    C2      16.460214   14.252865   22.377651 C.3        1 MOL1         0.1003
       5    H2      16.283170   13.200829   22.120318 H          1 MOL1         0.0783
       6    O2      15.608853   14.625467   23.474677 O.3        1 MOL1        -0.5519
       7    H3      15.494615   15.604669   23.423441 H          1 MOL1         0.3769
       8    C3      17.960500   14.410798   22.736993 C.3        1 MOL1         0.1053
       9    H4      18.107731   15.434664   23.101714 H          1 MOL1         0.0783
      10    O3      18.325367   13.477915   23.759775 O.3        1 MOL1        -0.5519
      11    H5      19.081671   13.902096   24.242302 H          1 MOL1         0.3769
      12    C4      18.875794   14.194902   21.500246 C.3        1 MOL1         0.1018
      13    H6      18.865469   13.124489   21.256990 H          1 MOL1         0.0783
      14    C5      18.377776   15.015288   20.270816 C.3        1 MOL1         0.1043
      15    H7      18.518421   16.079085   20.496182 H          1 MOL1         0.0783
      16    O4      16.968025   14.752623   20.056059 O.3        1 MOL1        -0.3740
      17    C6      19.097156   14.737697   18.927016 C.3        1 MOL1         0.0138
      18    H8      19.969092   15.397120   18.855008 H          1 MOL1         0.0794
      19    H9      18.424281   15.019913   18.106371 H          1 MOL1         0.0794
      20    O5      19.503202   13.374410   18.772269 O.3        1 MOL1        -0.5486
      21    H10     20.415314   13.316279   19.135826 H          1 MOL1         0.3769
      22    C7      14.860102   20.328749   20.725255 C.3        1 MOL1         0.2972
      23    H11     14.266064   21.188589   20.389696 H          1 MOL1         0.0751
      24    O6      16.132355   20.736450   21.262570 O.3        1 MOL1        -0.3740
      25    C8      14.112526   19.528218   21.823380 C.3        1 MOL1         0.1003
      26    H12     13.163851   19.185810   21.390102 H          1 MOL1         0.0783
      27    O7      13.837733   20.351074   22.968752 O.3        1 MOL1        -0.5519
      28    H13     14.691801   20.774926   23.239368 H          1 MOL1         0.3769
      29    C9      14.926130   18.277698   22.241578 C.3        1 MOL1         0.1053
      30    H14     15.836134   18.617843   22.752450 H          1 MOL1         0.0783
      31    O8      14.143843   17.473975   23.131372 O.3        1 MOL1        -0.5519
      32    H15     13.767905   18.104870   23.784419 H          1 MOL1         0.3769
      33    C10     15.350110   17.439382   21.009657 C.3        1 MOL1         0.1018
      34    H16     14.455859   16.944166   20.609295 H          1 MOL1         0.0783
      35    C11     15.994102   18.321550   19.902593 C.3        1 MOL1         0.1043
      36    H17     16.947722   18.706224   20.280585 H          1 MOL1         0.0783
      37    O9      15.112588   19.435253   19.618455 O.3        1 MOL1        -0.3740
      38    C12     16.306719   17.594884   18.570052 C.3        1 MOL1         0.0138
      39    H18     17.306600   17.150121   18.644219 H          1 MOL1         0.0794
      40    H19     16.352193   18.343338   17.767767 H          1 MOL1         0.0794
      41    O10     15.353407   16.579177   18.239896 O.3        1 MOL1        -0.5486
      42    H20     15.650426   15.758724   18.695604 H          1 MOL1         0.3769
      43    C13     18.536810   24.024686   21.899003 C.3        1 MOL1         0.2972
      44    H21     18.964094   25.020875   22.073184 H          1 MOL1         0.0751
      45    O11     19.567387   23.038199   21.697010 O.3        1 MOL1        -0.3740
      46    C14     17.690290   23.600041   23.122592 C.3        1 MOL1         0.1003
      47    H22     16.877244   24.329019   23.235098 H          1 MOL1         0.0783
      48    O12     18.498578   23.599647   24.309646 O.3        1 MOL1        -0.5519
      49    H23     19.432272   23.486957   24.011267 H          1 MOL1         0.3769
      50    C15     17.059592   22.207679   22.895704 C.3        1 MOL1         0.1053
      51    H24     17.872839   21.471946   22.875344 H          1 MOL1         0.0783
      52    O13     16.163836   21.906353   23.970949 O.3        1 MOL1        -0.5519
      53    H25     16.668992   22.119254   24.786965 H          1 MOL1         0.3769
      54    C16     16.303783   22.137289   21.545891 C.3        1 MOL1         0.1018
      55    H26     15.342980   22.657969   21.654332 H          1 MOL1         0.0783
      56    C17     17.118155   22.742886   20.367333 C.3        1 MOL1         0.1043
      57    H27     17.931600   22.043002   20.141568 H          1 MOL1         0.0783
      58    O14     17.685896   24.027490   20.733953 O.3        1 MOL1        -0.3740
      59    C18     16.295916   22.926324   19.069215 C.3        1 MOL1         0.0138
      60    H28     16.087719   21.935227   18.644064 H          1 MOL1         0.0794
      61    H29     16.909290   23.470589   18.338536 H          1 MOL1         0.0794
      62    O15     15.066055   23.622897   19.304765 O.3        1 MOL1        -0.5486
      63    H30     14.636742   23.772339   18.434227 H          1 MOL1         0.3769
      64    C19     23.597244   22.714884   20.715203 C.3        1 MOL1         0.2972
      65    H31     24.617366   22.865520   20.341458 H          1 MOL1         0.0751
      66    O16     23.386267   21.363252   21.171414 O.3        1 MOL1        -0.3740
      67    C20     23.277274   23.689031   21.879373 C.3        1 MOL1         0.1003
      68    H32     23.337730   24.708101   21.475589 H          1 MOL1         0.0783
      69    O17     24.221440   23.561343   22.952416 O.3        1 MOL1        -0.5519
      70    H33     24.246645   22.605844   23.213564 H          1 MOL1         0.3769
      71    C21     21.830462   23.465451   22.385262 C.3        1 MOL1         0.1053
      72    H34     21.768247   22.459964   22.824165 H          1 MOL1         0.0783
      73    O18     21.508719   24.446590   23.376453 O.3        1 MOL1        -0.5519
      74    H35     22.297014   24.487142   23.962571 H          1 MOL1         0.3769
      75    C22     20.822475   23.549008   21.211219 C.3        1 MOL1         0.1018
      76    H36     20.744886   24.597937   20.896185 H          1 MOL1         0.0783
      77    C23     21.256406   22.686828   19.991507 C.3        1 MOL1         0.1043
      78    H37     21.167925   21.630592   20.267787 H          1 MOL1         0.0783
      79    O19     22.639290   22.978685   19.665707 O.3        1 MOL1        -0.3740
      80    C24     20.395209   22.883906   18.716158 C.3        1 MOL1         0.0138
      81    H38     19.578650   22.151918   18.731837 H          1 MOL1         0.0794
      82    H39     21.011489   22.645981   17.838911 H          1 MOL1         0.0794
      83    O20     19.854412   24.205309   18.590977 O.3        1 MOL1        -0.5486
      84    H40     19.149112   24.298314   19.273454 H          1 MOL1         0.3769
      85    C25     25.057991   17.658391   21.840758 C.3        1 MOL1         0.2972
      86    H41     25.702607   16.783113   21.993840 H          1 MOL1         0.0751
      87    O21     23.668769   17.289754   21.759311 O.3        1 MOL1        -0.3740
      88    C26     25.232052   18.653703   23.011742 C.3        1 MOL1         0.1003
      89    H42     26.277279   18.989249   23.007031 H          1 MOL1         0.0783
      90    O22     24.945387   18.020682   24.268945 O.3        1 MOL1        -0.5519
      91    H43     24.441550   17.193322   24.066671 H          1 MOL1         0.3769
      92    C27     24.330705   19.892884   22.811891 C.3        1 MOL1         0.1053
      93    H44     23.285769   19.566703   22.893819 H          1 MOL1         0.0783
      94    O23     24.617314   20.844168   23.840247 O.3        1 MOL1        -0.5519
      95    H45     24.641344   20.313419   24.668424 H          1 MOL1         0.3769
      96    C28     24.538020   20.532070   21.413137 C.3        1 MOL1         0.1018
      97    H46     25.471723   21.108610   21.423555 H          1 MOL1         0.0783
      98    C29     24.563513   19.475112   20.270105 C.3        1 MOL1         0.1043
      99    H47     23.534109   19.122685   20.127677 H          1 MOL1         0.0783
     100    O24     25.403593   18.343491   20.619135 O.3        1 MOL1        -0.3740
     101    C30     25.041570   20.037406   18.909484 C.3        1 MOL1         0.0138
     102    H48     24.311966   20.778938   18.556436 H          1 MOL1         0.0794
     103    H49     25.046097   19.217279   18.179156 H          1 MOL1         0.0794
     104    O25     26.345882   20.627487   18.986168 O.3        1 MOL1        -0.5486
     105    H50     26.278183   21.458951   19.498447 H          1 MOL1         0.3769
     106    C31     21.315912   13.827196   21.470534 C.3        1 MOL1         0.2972
     107    H51     21.001752   12.794542   21.273908 H          1 MOL1         0.0751
     108    O26     20.197377   14.636426   21.894623 O.3        1 MOL1        -0.3740
     109    C32     22.404204   13.830830   22.579956 C.3        1 MOL1         0.1003
     110    H52     23.240449   13.227956   22.202985 H          1 MOL1         0.0783
     111    O27     21.927056   13.236949   23.794909 O.3        1 MOL1        -0.5519
     112    H53     21.278156   13.878531   24.192607 H          1 MOL1         0.3769
     113    C33     22.936540   15.259323   22.842698 C.3        1 MOL1         0.1053
     114    H54     22.120341   15.866861   23.258036 H          1 MOL1         0.0783
     115    O28     24.027051   15.201920   23.768563 O.3        1 MOL1        -0.5519
     116    H55     23.714564   14.614012   24.492422 H          1 MOL1         0.3769
     117    C34     23.400022   15.898891   21.513812 C.3        1 MOL1         0.1018
     118    H56     24.293074   15.368313   21.157698 H          1 MOL1         0.0783
     119    C35     22.297832   15.807933   20.425514 C.3        1 MOL1         0.1043
     120    H57     21.434713   16.400816   20.754353 H          1 MOL1         0.0783
     121    O29     21.894354   14.420759   20.283212 O.3        1 MOL1        -0.3740
     122    C36     22.730055   16.361489   19.041383 C.3        1 MOL1         0.0138
     123    H58     22.490747   17.432159   19.009459 H          1 MOL1         0.0794
     124    H59     22.127818   15.877086   18.261994 H          1 MOL1         0.0794
     125    O30     24.124357   16.176920   18.765643 O.3        1 MOL1        -0.5486
     126    H60     24.622006   16.793187   19.351972 H          1 MOL1         0.3769
     127    C1      19.821886   15.942638   25.790539 C.2        1 MOL1         0.6173
     128    O1      19.686664   15.770133   26.986323 O.co2      1 MOL1        -0.6755
     129    O2      20.265496   15.088611   25.042787 O.co2      1 MOL1        -0.6755
     130    C2      19.382702   17.252463   25.234537 C.2        1 MOL1        -0.1504
     131    H1      18.948890   17.949556   25.947284 H          1 MOL1         0.0814
     132    C3      19.489526   17.591622   23.930582 C.2        1 MOL1        -0.1394
     133    H2      19.926627   16.897950   23.215302 H          1 MOL1         0.0817
     134    C4      19.007008   18.912033   23.366557 C.3        1 MOL1        -0.1849
     135    H3      19.483537   19.747235   23.897046 H          1 MOL1         0.0736
     136    H4      17.929270   19.006202   23.547332 H          1 MOL1         0.0736
     137    C5      19.276328   19.036267   21.851341 C.3        1 MOL1        -0.1866
     138    H5      18.889643   18.149028   21.336576 H          1 MOL1         0.0738
     139    H6      18.733652   19.900552   21.449314 H          1 MOL1         0.0738
     140    C6      20.774240   19.206040   21.546478 C.3        1 MOL1        -0.2879
     141    H7      21.350777   18.369779   21.953874 H          1 MOL1         0.0750
     142    H8      20.954029   19.256215   20.465832 H          1 MOL1         0.0750
     143    H9      21.152115   20.126739   22.006213 H          1 MOL1         0.0750
@<TRIPOS>BOND
    1     1     2    1
    2     1     3    1
    3     1     4    1
    4     4     5    1
    5     4     6    1
    6     6     7    1
    7     4     8    1
    8     8     9    1
    9     8    10    1
   10    10    11    1
   11     8    12    1
   12    12    13    1
   13    12    14    1
   14    14    15    1
   15     1    16    1
   16    14    16    1
   17    14    17    1
   18    17    18    1
   19    17    19    1
   20    17    20    1
   21    20    21    1
   22    22    23    1
   23    22    24    1
   24    22    25    1
   25    25    26    1
   26    25    27    1
   27    27    28    1
   28    25    29    1
   29    29    30    1
   30    29    31    1
   31    31    32    1
   32     3    33    1
   33    29    33    1
   34    33    34    1
   35    33    35    1
   36    35    36    1
   37    22    37    1
   38    35    37    1
   39    35    38    1
   40    38    39    1
   41    38    40    1
   42    38    41    1
   43    41    42    1
   44    43    44    1
   45    43    45    1
   46    43    46    1
   47    46    47    1
   48    46    48    1
   49    48    49    1
   50    46    50    1
   51    50    51    1
   52    50    52    1
   53    52    53    1
   54    24    54    1
   55    50    54    1
   56    54    55    1
   57    54    56    1
   58    56    57    1
   59    43    58    1
   60    56    58    1
   61    56    59    1
   62    59    60    1
   63    59    61    1
   64    59    62    1
   65    62    63    1
   66    64    65    1
   67    64    66    1
   68    64    67    1
   69    67    68    1
   70    67    69    1
   71    69    70    1
   72    67    71    1
   73    71    72    1
   74    71    73    1
   75    73    74    1
   76    45    75    1
   77    71    75    1
   78    75    76    1
   79    75    77    1
   80    77    78    1
   81    64    79    1
   82    77    79    1
   83    77    80    1
   84    80    81    1
   85    80    82    1
   86    80    83    1
   87    83    84    1
   88    85    86    1
   89    85    87    1
   90    85    88    1
   91    88    89    1
   92    88    90    1
   93    90    91    1
   94    88    92    1
   95    92    93    1
   96    92    94    1
   97    94    95    1
   98    66    96    1
   99    92    96    1
  100    96    97    1
  101    96    98    1
  102    98    99    1
  103    85   100    1
  104    98   100    1
  105    98   101    1
  106   101   102    1
  107   101   103    1
  108   101   104    1
  109   104   105    1
  110   106   107    1
  111    12   108    1
  112   106   108    1
  113   106   109    1
  114   109   110    1
  115   109   111    1
  116   111   112    1
  117   109   113    1
  118   113   114    1
  119   113   115    1
  120   115   116    1
  121    87   117    1
  122   113   117    1
  123   117   118    1
  124   117   119    1
  125   119   120    1
  126   106   121    1
  127   119   121    1
  128   119   122    1
  129   122   123    1
  130   122   124    1
  131   122   125    1
  132   125   126    1
  133   127   128    1
  134   127   129    2
  135   127   130    1
  136   130   131    1
  137   130   132    2
  138   132   133    1
  139   132   134    1
  140   134   135    1
  141   134   136    1
  142   134   137    1
  143   137   138    1
  144   137   139    1
  145   137   140    1
  146   140   141    1
  147   140   142    1
  148   140   143    1
@<TRIPOS>SUBSTRUCTURE
       1 MOL1            1 RESIDUE      1      MOL     
       2 MOL1          143 RESIDUE      1      MOL     
@<SCITEGIC>MOL_PROPERTY
feprocess Rank
SciTegic.value.IntegerValue
122

@<SCITEGIC>MOL_PROPERTY
Conf_Id
SciTegic.value.IntegerValue
936

@<SCITEGIC>MOL_PROPERTY
Probability
SciTegic.value.DoubleValue
0.00

@<SCITEGIC>MOL_PROPERTY
G
SciTegic.value.DoubleValue
502.167

@<SCITEGIC>MOL_PROPERTY
E
SciTegic.value.DoubleValue
320.157

@<SCITEGIC>MOL_PROPERTY
-TS
SciTegic.value.DoubleValue
182.010

@<SCITEGIC>MOL_PROPERTY
U+W
SciTegic.value.DoubleValue
194.069

@<SCITEGIC>MOL_PROPERTY
U
SciTegic.value.DoubleValue
275.506

@<SCITEGIC>MOL_PROPERTY
W
SciTegic.value.DoubleValue
-81.438

@<SCITEGIC>MOL_PROPERTY
W(PB)
SciTegic.value.DoubleValue
-87.546

@<SCITEGIC>MOL_PROPERTY
W(SA)
SciTegic.value.DoubleValue
6.108

@<SCITEGIC>MOL_PROPERTY
Valence
SciTegic.value.DoubleValue
152.011

@<SCITEGIC>MOL_PROPERTY
Coulomb
SciTegic.value.DoubleValue
146.781

@<SCITEGIC>MOL_PROPERTY
VdW
SciTegic.value.DoubleValue
-23.286

@<SCITEGIC>MOL_PROPERTY
VdW6
SciTegic.value.DoubleValue
-178.771

@<SCITEGIC>MOL_PROPERTY
VdW12
SciTegic.value.DoubleValue
155.484

@<SCITEGIC>MOL_PROPERTY
Bond
SciTegic.value.DoubleValue
4.917

@<SCITEGIC>MOL_PROPERTY
Angle
SciTegic.value.DoubleValue
13.964

@<SCITEGIC>MOL_PROPERTY
Pdih
SciTegic.value.DoubleValue
133.128

@<SCITEGIC>MOL_PROPERTY
Idih
SciTegic.value.DoubleValue
0.003

@<SCITEGIC>MOL_PROPERTY
Tether
SciTegic.value.DoubleValue
0.000

@<TRIPOS>MOLECULE
CD_guest-s19_fast_vm2_rndm.mol2 : feprocess host+ligand conformer 123
         143         148           2
SMALL
USER_CHARGES
 
@<TRIPOS>ATOM
       1    C1      16.245203   15.327137   20.441893 C.3        1 MOL1         0.2972
       2    H1      15.260260   15.171381   19.983320 H          1 MOL1         0.0751
       3    O1      16.356783   16.622082   21.058252 O.3        1 MOL1        -0.3740
       4    C2      16.514904   14.279320   21.551944 C.3        1 MOL1         0.1003
       5    H2      16.497525   13.287149   21.082611 H          1 MOL1         0.0783
       6    O2      15.505166   14.337998   22.572417 O.3        1 MOL1        -0.5519
       7    H3      15.354562   15.294676   22.782936 H          1 MOL1         0.3769
       8    C3      17.920181   14.496416   22.167437 C.3        1 MOL1         0.1053
       9    H4      17.923253   15.460844   22.694569 H          1 MOL1         0.0783
      10    O3      18.210197   13.440583   23.089607 O.3        1 MOL1        -0.5519
      11    H5      17.392365   13.337882   23.625507 H          1 MOL1         0.3769
      12    C4      19.000682   14.548477   21.059466 C.3        1 MOL1         0.1018
      13    H6      19.113993   13.540686   20.638522 H          1 MOL1         0.0783
      14    C5      18.624223   15.527239   19.912950 C.3        1 MOL1         0.1043
      15    H7      18.632780   16.550055   20.307470 H          1 MOL1         0.0783
      16    O4      17.289859   15.205204   19.451144 O.3        1 MOL1        -0.3740
      17    C6      19.586257   15.500609   18.696493 C.3        1 MOL1         0.0138
      18    H8      20.396953   16.216665   18.875721 H          1 MOL1         0.0794
      19    H9      19.042374   15.861985   17.813658 H          1 MOL1         0.0794
      20    O5      20.138787   14.202536   18.440274 O.3        1 MOL1        -0.5486
      21    H10     20.790436   14.017829   19.156185 H          1 MOL1         0.3769
      22    C7      14.574539   20.316549   21.372790 C.3        1 MOL1         0.2972
      23    H11     13.907323   21.187715   21.385855 H          1 MOL1         0.0751
      24    O6      15.934145   20.676448   21.672863 O.3        1 MOL1        -0.3740
      25    C8      14.128125   19.294696   22.443741 C.3        1 MOL1         0.1003
      26    H12     13.113456   18.962053   22.189111 H          1 MOL1         0.0783
      27    O7      14.120921   19.906809   23.743801 O.3        1 MOL1        -0.5519
      28    H13     14.854124   20.571742   23.750818 H          1 MOL1         0.3769
      29    C9      15.059496   18.061154   22.432076 C.3        1 MOL1         0.1053
      30    H14     16.054041   18.381112   22.771305 H          1 MOL1         0.0783
      31    O8      14.544832   17.065259   23.322569 O.3        1 MOL1        -0.5519
      32    H15     14.319966   17.553775   24.145671 H          1 MOL1         0.3769
      33    C10     15.202422   17.474141   21.006697 C.3        1 MOL1         0.1018
      34    H16     14.286474   16.919729   20.763639 H          1 MOL1         0.0783
      35    C11     15.476333   18.560910   19.928147 C.3        1 MOL1         0.1043
      36    H17     16.503814   18.923298   20.066690 H          1 MOL1         0.0783
      37    O9      14.550588   19.668631   20.084261 O.3        1 MOL1        -0.3740
      38    C12     15.374978   18.036434   18.476603 C.3        1 MOL1         0.0138
      39    H18     16.239009   17.387096   18.281493 H          1 MOL1         0.0794
      40    H19     15.450681   18.890096   17.789962 H          1 MOL1         0.0794
      41    O10     14.157937   17.314823   18.245643 O.3        1 MOL1        -0.5486
      42    H20     14.141019   17.056492   17.298551 H          1 MOL1         0.3769
      43    C13     18.492616   23.976411   21.596642 C.3        1 MOL1         0.2972
      44    H21     18.874965   25.001143   21.505651 H          1 MOL1         0.0751
      45    O11     19.555285   23.035263   21.838052 O.3        1 MOL1        -0.3740
      46    C14     17.508480   23.898013   22.790079 C.3        1 MOL1         0.1003
      47    H22     16.704118   24.621391   22.603715 H          1 MOL1         0.0783
      48    O12     18.178623   24.238751   24.014321 O.3        1 MOL1        -0.5519
      49    H23     19.135354   24.023250   23.884282 H          1 MOL1         0.3769
      50    C15     16.872215   22.492921   22.892520 C.3        1 MOL1         0.1053
      51    H24     17.659405   21.775922   23.163137 H          1 MOL1         0.0783
      52    O13     15.851778   22.499936   23.897535 O.3        1 MOL1        -0.5519
      53    H25     16.261004   22.948790   24.670505 H          1 MOL1         0.3769
      54    C16     16.274869   22.063602   21.532636 C.3        1 MOL1         0.1018
      55    H26     15.396825   22.688073   21.321840 H          1 MOL1         0.0783
      56    C17     17.309289   22.214663   20.383754 C.3        1 MOL1         0.1043
      57    H27     18.136419   21.518678   20.576564 H          1 MOL1         0.0783
      58    O14     17.807595   23.577564   20.388901 O.3        1 MOL1        -0.3740
      59    C18     16.771689   21.894345   18.965618 C.3        1 MOL1         0.0138
      60    H28     16.879235   20.816769   18.789123 H          1 MOL1         0.0794
      61    H29     17.409799   22.398004   18.227647 H          1 MOL1         0.0794
      62    O15     15.404012   22.276864   18.780002 O.3        1 MOL1        -0.5486
      63    H30     14.859275   21.528960   19.117283 H          1 MOL1         0.3769
      64    C19     23.699810   22.746702   21.263564 C.3        1 MOL1         0.2972
      65    H31     24.734369   22.988016   20.988519 H          1 MOL1         0.0751
      66    O16     23.592569   21.406837   21.774761 O.3        1 MOL1        -0.3740
      67    C20     23.223722   23.699374   22.388982 C.3        1 MOL1         0.1003
      68    H32     23.326277   24.728279   22.020376 H          1 MOL1         0.0783
      69    O17     24.039188   23.526485   23.558745 O.3        1 MOL1        -0.5519
      70    H33     24.242507   22.561610   23.614195 H          1 MOL1         0.3769
      71    C21     21.734458   23.457207   22.732480 C.3        1 MOL1         0.1053
      72    H34     21.641022   22.465523   23.195034 H          1 MOL1         0.0783
      73    O18     21.283416   24.464183   23.645282 O.3        1 MOL1        -0.5519
      74    H35     21.977224   24.509223   24.340049 H          1 MOL1         0.3769
      75    C22     20.868744   23.476944   21.452066 C.3        1 MOL1         0.1018
      76    H36     20.859836   24.501808   21.058181 H          1 MOL1         0.0783
      77    C23     21.434177   22.523681   20.363775 C.3        1 MOL1         0.1043
      78    H37     21.376671   21.491764   20.736457 H          1 MOL1         0.0783
      79    O19     22.820029   22.881874   20.125706 O.3        1 MOL1        -0.3740
      80    C24     20.680386   22.563393   19.008954 C.3        1 MOL1         0.0138
      81    H38     19.829482   21.873611   19.062676 H          1 MOL1         0.0794
      82    H39     21.344702   22.179483   18.224223 H          1 MOL1         0.0794
      83    O20     20.216407   23.873116   18.660655 O.3        1 MOL1        -0.5486
      84    H40     19.365887   24.005580   19.140158 H          1 MOL1         0.3769
      85    C25     25.127184   17.583027   21.242892 C.3        1 MOL1         0.2972
      86    H41     25.730888   16.699836   20.997420 H          1 MOL1         0.0751
      87    O21     23.810831   17.227226   21.700495 O.3        1 MOL1        -0.3740
      88    C26     25.790731   18.411798   22.368916 C.3        1 MOL1         0.1003
      89    H42     26.782138   18.722040   22.014289 H          1 MOL1         0.0783
      90    O22     25.932615   17.621448   23.561330 O.3        1 MOL1        -0.5519
      91    H43     25.063165   17.173022   23.718319 H          1 MOL1         0.3769
      92    C27     24.962285   19.685550   22.667954 C.3        1 MOL1         0.1053
      93    H44     24.018140   19.370162   23.130757 H          1 MOL1         0.0783
      94    O23     25.686552   20.522734   23.576595 O.3        1 MOL1        -0.5519
      95    H45     25.987400   19.923352   24.294645 H          1 MOL1         0.3769
      96    C28     24.620155   20.477874   21.379306 C.3        1 MOL1         0.1018
      97    H46     25.530916   20.990664   21.043733 H          1 MOL1         0.0783
      98    C29     24.083273   19.555095   20.243959 C.3        1 MOL1         0.1043
      99    H47     23.091777   19.188325   20.538089 H          1 MOL1         0.0783
     100    O24     24.987911   18.435367   20.089133 O.3        1 MOL1        -0.3740
     101    C30     23.916941   20.212630   18.851264 C.3        1 MOL1         0.0138
     102    H48     22.906936   20.633495   18.785934 H          1 MOL1         0.0794
     103    H49     23.970884   19.425162   18.087799 H          1 MOL1         0.0794
     104    O25     24.888606   21.229468   18.580963 O.3        1 MOL1        -0.5486
     105    H50     24.488589   22.076802   18.878946 H          1 MOL1         0.3769
     106    C31     21.222329   14.001500   21.856764 C.3        1 MOL1         0.2972
     107    H51     20.777123   12.999621   21.915349 H          1 MOL1         0.0751
     108    O26     20.214648   15.012552   21.675414 O.3        1 MOL1        -0.3740
     109    C32     21.986634   14.305377   23.167976 C.3        1 MOL1         0.1003
     110    H52     22.768883   13.543465   23.280373 H          1 MOL1         0.0783
     111    O27     21.093901   14.240210   24.291133 O.3        1 MOL1        -0.5519
     112    H53     20.180926   14.335425   23.928264 H          1 MOL1         0.3769
     113    C33     22.671139   15.688591   23.098744 C.3        1 MOL1         0.1053
     114    H54     21.887643   16.457953   23.075425 H          1 MOL1         0.0783
     115    O28     23.500749   15.874034   24.251655 O.3        1 MOL1        -0.5519
     116    H55     22.932178   15.626452   25.014190 H          1 MOL1         0.3769
     117    C34     23.523425   15.825597   21.816263 C.3        1 MOL1         0.1018
     118    H56     24.435139   15.225232   21.935649 H          1 MOL1         0.0783
     119    C35     22.751387   15.389522   20.539610 C.3        1 MOL1         0.1043
     120    H57     21.970638   16.137641   20.354293 H          1 MOL1         0.0783
     121    O29     22.138701   14.089897   20.745685 O.3        1 MOL1        -0.3740
     122    C36     23.626866   15.314560   19.265981 C.3        1 MOL1         0.0138
     123    H58     23.870383   16.337165   18.948509 H          1 MOL1         0.0794
     124    H59     23.035719   14.860094   18.459676 H          1 MOL1         0.0794
     125    O30     24.831221   14.568357   19.482873 O.3        1 MOL1        -0.5486
     126    H60     25.303291   14.509598   18.623901 H          1 MOL1         0.3769
     127    C1      20.046855   18.967005   19.707248 C.2        1 MOL1         0.6173
     128    O1      21.024991   18.750531   19.018316 O.co2      1 MOL1        -0.6755
     129    O2      19.012945   19.444077   19.276769 O.co2      1 MOL1        -0.6755
     130    C2      20.139690   18.599759   21.145020 C.2        1 MOL1        -0.1504
     131    H1      21.075670   18.146713   21.459862 H          1 MOL1         0.0814
     132    C3      19.144276   18.795414   22.038203 C.2        1 MOL1        -0.1394
     133    H2      18.204558   19.249822   21.731388 H          1 MOL1         0.0817
     134    C4      19.231075   18.401347   23.497012 C.3        1 MOL1        -0.1849
     135    H3      19.787566   17.461333   23.606471 H          1 MOL1         0.0736
     136    H4      18.219181   18.198982   23.871046 H          1 MOL1         0.0736
     137    C5      19.874415   19.499596   24.373437 C.3        1 MOL1        -0.1866
     138    H5      19.354667   20.453806   24.213966 H          1 MOL1         0.0738
     139    H6      19.733467   19.238151   25.430823 H          1 MOL1         0.0738
     140    C6      21.383272   19.677867   24.102703 C.3        1 MOL1        -0.2879
     141    H7      21.813054   20.424910   24.781874 H          1 MOL1         0.0750
     142    H8      21.922180   18.733447   24.251804 H          1 MOL1         0.0750
     143    H9      21.562204   20.017173   23.075401 H          1 MOL1         0.0750
@<TRIPOS>BOND
    1     1     2    1
    2     1     3    1
    3     1     4    1
    4     4     5    1
    5     4     6    1
    6     6     7    1
    7     4     8    1
    8     8     9    1
    9     8    10    1
   10    10    11    1
   11     8    12    1
   12    12    13    1
   13    12    14    1
   14    14    15    1
   15     1    16    1
   16    14    16    1
   17    14    17    1
   18    17    18    1
   19    17    19    1
   20    17    20    1
   21    20    21    1
   22    22    23    1
   23    22    24    1
   24    22    25    1
   25    25    26    1
   26    25    27    1
   27    27    28    1
   28    25    29    1
   29    29    30    1
   30    29    31    1
   31    31    32    1
   32     3    33    1
   33    29    33    1
   34    33    34    1
   35    33    35    1
   36    35    36    1
   37    22    37    1
   38    35    37    1
   39    35    38    1
   40    38    39    1
   41    38    40    1
   42    38    41    1
   43    41    42    1
   44    43    44    1
   45    43    45    1
   46    43    46    1
   47    46    47    1
   48    46    48    1
   49    48    49    1
   50    46    50    1
   51    50    51    1
   52    50    52    1
   53    52    53    1
   54    24    54    1
   55    50    54    1
   56    54    55    1
   57    54    56    1
   58    56    57    1
   59    43    58    1
   60    56    58    1
   61    56    59    1
   62    59    60    1
   63    59    61    1
   64    59    62    1
   65    62    63    1
   66    64    65    1
   67    64    66    1
   68    64    67    1
   69    67    68    1
   70    67    69    1
   71    69    70    1
   72    67    71    1
   73    71    72    1
   74    71    73    1
   75    73    74    1
   76    45    75    1
   77    71    75    1
   78    75    76    1
   79    75    77    1
   80    77    78    1
   81    64    79    1
   82    77    79    1
   83    77    80    1
   84    80    81    1
   85    80    82    1
   86    80    83    1
   87    83    84    1
   88    85    86    1
   89    85    87    1
   90    85    88    1
   91    88    89    1
   92    88    90    1
   93    90    91    1
   94    88    92    1
   95    92    93    1
   96    92    94    1
   97    94    95    1
   98    66    96    1
   99    92    96    1
  100    96    97    1
  101    96    98    1
  102    98    99    1
  103    85   100    1
  104    98   100    1
  105    98   101    1
  106   101   102    1
  107   101   103    1
  108   101   104    1
  109   104   105    1
  110   106   107    1
  111    12   108    1
  112   106   108    1
  113   106   109    1
  114   109   110    1
  115   109   111    1
  116   111   112    1
  117   109   113    1
  118   113   114    1
  119   113   115    1
  120   115   116    1
  121    87   117    1
  122   113   117    1
  123   117   118    1
  124   117   119    1
  125   119   120    1
  126   106   121    1
  127   119   121    1
  128   119   122    1
  129   122   123    1
  130   122   124    1
  131   122   125    1
  132   125   126    1
  133   127   128    1
  134   127   129    2
  135   127   130    1
  136   130   131    1
  137   130   132    2
  138   132   133    1
  139   132   134    1
  140   134   135    1
  141   134   136    1
  142   134   137    1
  143   137   138    1
  144   137   139    1
  145   137   140    1
  146   140   141    1
  147   140   142    1
  148   140   143    1
@<TRIPOS>SUBSTRUCTURE
       1 MOL1            1 RESIDUE      1      MOL     
       2 MOL1          143 RESIDUE      1      MOL     
@<SCITEGIC>MOL_PROPERTY
feprocess Rank
SciTegic.value.IntegerValue
123

@<SCITEGIC>MOL_PROPERTY
Conf_Id
SciTegic.value.IntegerValue
977

@<SCITEGIC>MOL_PROPERTY
Probability
SciTegic.value.DoubleValue
0.00

@<SCITEGIC>MOL_PROPERTY
G
SciTegic.value.DoubleValue
502.227

@<SCITEGIC>MOL_PROPERTY
E
SciTegic.value.DoubleValue
321.562

@<SCITEGIC>MOL_PROPERTY
-TS
SciTegic.value.DoubleValue
180.665

@<SCITEGIC>MOL_PROPERTY
U+W
SciTegic.value.DoubleValue
195.474

@<SCITEGIC>MOL_PROPERTY
U
SciTegic.value.DoubleValue
263.553

@<SCITEGIC>MOL_PROPERTY
W
SciTegic.value.DoubleValue
-68.080

@<SCITEGIC>MOL_PROPERTY
W(PB)
SciTegic.value.DoubleValue
-73.964

@<SCITEGIC>MOL_PROPERTY
W(SA)
SciTegic.value.DoubleValue
5.884

@<SCITEGIC>MOL_PROPERTY
Valence
SciTegic.value.DoubleValue
150.455

@<SCITEGIC>MOL_PROPERTY
Coulomb
SciTegic.value.DoubleValue
143.170

@<SCITEGIC>MOL_PROPERTY
VdW
SciTegic.value.DoubleValue
-30.072

@<SCITEGIC>MOL_PROPERTY
VdW6
SciTegic.value.DoubleValue
-183.293

@<SCITEGIC>MOL_PROPERTY
VdW12
SciTegic.value.DoubleValue
153.221

@<SCITEGIC>MOL_PROPERTY
Bond
SciTegic.value.DoubleValue
4.275

@<SCITEGIC>MOL_PROPERTY
Angle
SciTegic.value.DoubleValue
12.922

@<SCITEGIC>MOL_PROPERTY
Pdih
SciTegic.value.DoubleValue
133.257

@<SCITEGIC>MOL_PROPERTY
Idih
SciTegic.value.DoubleValue
0.001

@<SCITEGIC>MOL_PROPERTY
Tether
SciTegic.value.DoubleValue
0.000

@<TRIPOS>MOLECULE
CD_guest-s19_fast_vm2_rndm.mol2 : feprocess host+ligand conformer 124
         143         148           2
SMALL
USER_CHARGES
 
@<TRIPOS>ATOM
       1    C1      16.370769   15.636098   22.046861 C.3        1 MOL1         0.2972
       2    H1      15.312537   15.479439   22.283406 H          1 MOL1         0.0751
       3    O1      16.650000   17.027961   21.779950 O.3        1 MOL1        -0.3740
       4    C2      17.237556   15.188432   23.249085 C.3        1 MOL1         0.1003
       5    H2      17.033585   14.123512   23.421354 H          1 MOL1         0.0783
       6    O2      16.895554   15.927281   24.430193 O.3        1 MOL1        -0.5519
       7    H3      16.960638   16.880172   24.196288 H          1 MOL1         0.3769
       8    C3      18.742324   15.341207   22.931900 C.3        1 MOL1         0.1053
       9    H4      18.965104   16.408110   22.791713 H          1 MOL1         0.0783
      10    O3      19.500319   14.826617   24.030575 O.3        1 MOL1        -0.5519
      11    H5      19.065922   15.189233   24.834336 H          1 MOL1         0.3769
      12    C4      19.099759   14.589406   21.626014 C.3        1 MOL1         0.1018
      13    H6      19.073459   13.508998   21.822151 H          1 MOL1         0.0783
      14    C5      18.127695   14.945251   20.467324 C.3        1 MOL1         0.1043
      15    H7      18.336131   15.978694   20.175527 H          1 MOL1         0.0783
      16    O4      16.746289   14.846697   20.896124 O.3        1 MOL1        -0.3740
      17    C6      18.312638   14.062922   19.209293 C.3        1 MOL1         0.0138
      18    H8      19.266234   14.329109   18.733288 H          1 MOL1         0.0794
      19    H9      17.514389   14.298924   18.492956 H          1 MOL1         0.0794
      20    O5      18.300656   12.665368   19.525656 O.3        1 MOL1        -0.5486
      21    H10     18.340487   12.167828   18.679809 H          1 MOL1         0.3769
      22    C7      14.638962   20.463520   20.547969 C.3        1 MOL1         0.2972
      23    H11     14.044434   21.222806   20.024187 H          1 MOL1         0.0751
      24    O6      15.354956   21.033566   21.660297 O.3        1 MOL1        -0.3740
      25    C8      13.713442   19.353748   21.100237 C.3        1 MOL1         0.1003
      26    H12     13.182773   18.913835   20.245681 H          1 MOL1         0.0783
      27    O7      12.761168   19.913053   22.016887 O.3        1 MOL1        -0.5519
      28    H13     13.280922   20.476910   22.633868 H          1 MOL1         0.3769
      29    C9      14.518253   18.228442   21.797860 C.3        1 MOL1         0.1053
      30    H14     14.922025   18.635609   22.733070 H          1 MOL1         0.0783
      31    O8      13.614260   17.158808   22.089268 O.3        1 MOL1        -0.5519
      32    H15     12.832395   17.586126   22.504166 H          1 MOL1         0.3769
      33    C10     15.711133   17.726975   20.930917 C.3        1 MOL1         0.1018
      34    H16     15.322722   17.072040   20.140881 H          1 MOL1         0.0783
      35    C11     16.501765   18.901591   20.286498 C.3        1 MOL1         0.1043
      36    H17     17.055773   19.419028   21.081125 H          1 MOL1         0.0783
      37    O9      15.584550   19.828820   19.661178 O.3        1 MOL1        -0.3740
      38    C12     17.542068   18.465682   19.225544 C.3        1 MOL1         0.0138
      39    H18     18.427424   18.077578   19.745066 H          1 MOL1         0.0794
      40    H19     17.865244   19.354002   18.667672 H          1 MOL1         0.0794
      41    O10     17.031812   17.481968   18.316573 O.3        1 MOL1        -0.5486
      42    H20     16.759777   16.700946   18.842380 H          1 MOL1         0.3769
      43    C13     18.317710   23.937186   21.792015 C.3        1 MOL1         0.2972
      44    H21     18.900028   24.867177   21.832488 H          1 MOL1         0.0751
      45    O11     19.179663   22.781091   21.761513 O.3        1 MOL1        -0.3740
      46    C14     17.391826   23.870696   23.022669 C.3        1 MOL1         0.1003
      47    H22     16.735776   24.750230   22.987582 H          1 MOL1         0.0783
      48    O12     18.164546   23.902169   24.233915 O.3        1 MOL1        -0.5519
      49    H23     19.110712   23.784845   23.972402 H          1 MOL1         0.3769
      50    C15     16.503691   22.611407   22.978555 C.3        1 MOL1         0.1053
      51    H24     17.161606   21.745105   23.128246 H          1 MOL1         0.0783
      52    O13     15.550661   22.691483   24.043947 O.3        1 MOL1        -0.5519
      53    H25     16.081080   22.916720   24.839618 H          1 MOL1         0.3769
      54    C16     15.775252   22.421526   21.619159 C.3        1 MOL1         0.1018
      55    H26     14.903211   23.087072   21.595278 H          1 MOL1         0.0783
      56    C17     16.700902   22.720066   20.388617 C.3        1 MOL1         0.1043
      57    H27     17.369545   21.862122   20.256626 H          1 MOL1         0.0783
      58    O14     17.496403   23.913001   20.612798 O.3        1 MOL1        -0.3740
      59    C18     15.964553   22.970967   19.044310 C.3        1 MOL1         0.0138
      60    H28     15.666459   22.017252   18.595947 H          1 MOL1         0.0794
      61    H29     16.673587   23.429962   18.341959 H          1 MOL1         0.0794
      62    O15     14.818546   23.815880   19.201864 O.3        1 MOL1        -0.5486
      63    H30     14.465371   24.010070   18.306154 H          1 MOL1         0.3769
      64    C19     23.302136   22.312650   20.880554 C.3        1 MOL1         0.2972
      65    H31     24.281359   22.546854   20.443188 H          1 MOL1         0.0751
      66    O16     23.302680   21.024460   21.516059 O.3        1 MOL1        -0.3740
      67    C20     22.926798   23.360899   21.964778 C.3        1 MOL1         0.1003
      68    H32     22.979177   24.350514   21.492650 H          1 MOL1         0.0783
      69    O17     23.854280   23.314328   23.061833 O.3        1 MOL1        -0.5519
      70    H33     24.020842   22.359353   23.266229 H          1 MOL1         0.3769
      71    C21     21.477477   23.156119   22.476813 C.3        1 MOL1         0.1053
      72    H34     21.430944   22.207151   23.029524 H          1 MOL1         0.0783
      73    O18     21.116882   24.243158   23.336391 O.3        1 MOL1        -0.5519
      74    H35     21.886088   24.357907   23.938199 H          1 MOL1         0.3769
      75    C22     20.505387   23.072845   21.276285 C.3        1 MOL1         0.1018
      76    H36     20.531670   24.031214   20.739762 H          1 MOL1         0.0783
      77    C23     20.949443   21.966203   20.290266 C.3        1 MOL1         0.1043
      78    H37     20.951928   21.000326   20.813231 H          1 MOL1         0.0783
      79    O19     22.288178   22.294386   19.849852 O.3        1 MOL1        -0.3740
      80    C24     20.044853   21.822683   19.040582 C.3        1 MOL1         0.0138
      81    H38     19.194949   21.181791   19.302551 H          1 MOL1         0.0794
      82    H39     20.609031   21.298887   18.257540 H          1 MOL1         0.0794
      83    O20     19.567353   23.080710   18.546511 O.3        1 MOL1        -0.5486
      84    H40     18.955897   23.451864   19.224031 H          1 MOL1         0.3769
      85    C25     25.373538   17.483428   21.657822 C.3        1 MOL1         0.2972
      86    H41     26.093563   16.655349   21.655183 H          1 MOL1         0.0751
      87    O21     24.023104   17.005877   21.848605 O.3        1 MOL1        -0.3740
      88    C26     25.726238   18.478777   22.790323 C.3        1 MOL1         0.1003
      89    H42     26.681640   18.947366   22.521092 H          1 MOL1         0.0783
      90    O22     25.897521   17.801970   24.044909 O.3        1 MOL1        -0.5519
      91    H43     24.998547   17.576480   24.402467 H          1 MOL1         0.3769
      92    C27     24.654689   19.595053   22.844787 C.3        1 MOL1         0.1053
      93    H44     23.679765   19.136666   23.048189 H          1 MOL1         0.0783
      94    O23     24.951682   20.552705   23.867950 O.3        1 MOL1        -0.5519
      95    H45     24.699137   20.098638   24.715428 H          1 MOL1         0.3769
      96    C28     24.548222   20.302328   21.475963 C.3        1 MOL1         0.1018
      97    H46     25.412006   20.971918   21.370094 H          1 MOL1         0.0783
      98    C29     24.477737   19.307309   20.278357 C.3        1 MOL1         0.1043
      99    H47     23.466547   18.880912   20.271031 H          1 MOL1         0.0783
     100    O24     25.438946   18.226161   20.422377 O.3        1 MOL1        -0.3740
     101    C30     24.714916   19.973008   18.900188 C.3        1 MOL1         0.0138
     102    H48     23.833106   20.573131   18.641254 H          1 MOL1         0.0794
     103    H49     24.804356   19.186191   18.139526 H          1 MOL1         0.0794
     104    O25     25.885821   20.798811   18.894189 O.3        1 MOL1        -0.5486
     105    H50     26.013709   21.128136   17.977886 H          1 MOL1         0.3769
     106    C31     21.346439   14.005442   20.829149 C.3        1 MOL1         0.2972
     107    H51     20.831209   13.108007   20.463420 H          1 MOL1         0.0751
     108    O26     20.409335   15.033669   21.219573 O.3        1 MOL1        -0.3740
     109    C32     22.275508   13.667703   22.022055 C.3        1 MOL1         0.1003
     110    H52     23.042647   12.975000   21.653041 H          1 MOL1         0.0783
     111    O27     21.540808   13.024557   23.074830 O.3        1 MOL1        -0.5519
     112    H53     20.921249   13.700440   23.446642 H          1 MOL1         0.3769
     113    C33     22.992724   14.952603   22.513250 C.3        1 MOL1         0.1053
     114    H54     22.231052   15.627593   22.927480 H          1 MOL1         0.0783
     115    O28     23.949483   14.633821   23.529386 O.3        1 MOL1        -0.5519
     116    H55     23.927559   15.403585   24.157532 H          1 MOL1         0.3769
     117    C34     23.711360   15.687791   21.346324 C.3        1 MOL1         0.1018
     118    H56     24.618586   15.120529   21.101393 H          1 MOL1         0.0783
     119    C35     22.811360   15.818438   20.075704 C.3        1 MOL1         0.1043
     120    H57     22.032785   16.564028   20.284039 H          1 MOL1         0.0783
     121    O29     22.185010   14.544369   19.789909 O.3        1 MOL1        -0.3740
     122    C36     23.528963   16.260661   18.772928 C.3        1 MOL1         0.0138
     123    H58     23.445532   17.347816   18.674199 H          1 MOL1         0.0794
     124    H59     22.988866   15.833646   17.917188 H          1 MOL1         0.0794
     125    O30     24.905448   15.872191   18.716938 O.3        1 MOL1        -0.5486
     126    H60     25.406890   16.549526   19.227470 H          1 MOL1         0.3769
     127    C1      22.934798   18.011097   25.283437 C.2        1 MOL1         0.6173
     128    O1      23.426188   16.913110   25.104330 O.co2      1 MOL1        -0.6755
     129    O2      23.566781   18.938213   25.755180 O.co2      1 MOL1        -0.6755
     130    C2      21.567419   18.249280   24.749346 C.2        1 MOL1        -0.1504
     131    H1      21.072169   17.385858   24.311857 H          1 MOL1         0.0814
     132    C3      20.947052   19.450948   24.783097 C.2        1 MOL1        -0.1394
     133    H2      21.440300   20.320637   25.216489 H          1 MOL1         0.0817
     134    C4      19.548884   19.688881   24.255990 C.3        1 MOL1        -0.1849
     135    H3      19.482910   19.367124   23.208127 H          1 MOL1         0.0736
     136    H4      19.327563   20.764839   24.269727 H          1 MOL1         0.0736
     137    C5      18.504336   18.933869   25.104149 C.3        1 MOL1        -0.1866
     138    H5      18.702046   17.856058   25.049770 H          1 MOL1         0.0738
     139    H6      18.609442   19.219508   26.159860 H          1 MOL1         0.0738
     140    C6      17.066650   19.227786   24.638158 C.3        1 MOL1        -0.2879
     141    H7      16.804959   20.273821   24.836503 H          1 MOL1         0.0750
     142    H8      16.962119   19.048334   23.562579 H          1 MOL1         0.0750
     143    H9      16.342497   18.600950   25.173768 H          1 MOL1         0.0750
@<TRIPOS>BOND
    1     1     2    1
    2     1     3    1
    3     1     4    1
    4     4     5    1
    5     4     6    1
    6     6     7    1
    7     4     8    1
    8     8     9    1
    9     8    10    1
   10    10    11    1
   11     8    12    1
   12    12    13    1
   13    12    14    1
   14    14    15    1
   15     1    16    1
   16    14    16    1
   17    14    17    1
   18    17    18    1
   19    17    19    1
   20    17    20    1
   21    20    21    1
   22    22    23    1
   23    22    24    1
   24    22    25    1
   25    25    26    1
   26    25    27    1
   27    27    28    1
   28    25    29    1
   29    29    30    1
   30    29    31    1
   31    31    32    1
   32     3    33    1
   33    29    33    1
   34    33    34    1
   35    33    35    1
   36    35    36    1
   37    22    37    1
   38    35    37    1
   39    35    38    1
   40    38    39    1
   41    38    40    1
   42    38    41    1
   43    41    42    1
   44    43    44    1
   45    43    45    1
   46    43    46    1
   47    46    47    1
   48    46    48    1
   49    48    49    1
   50    46    50    1
   51    50    51    1
   52    50    52    1
   53    52    53    1
   54    24    54    1
   55    50    54    1
   56    54    55    1
   57    54    56    1
   58    56    57    1
   59    43    58    1
   60    56    58    1
   61    56    59    1
   62    59    60    1
   63    59    61    1
   64    59    62    1
   65    62    63    1
   66    64    65    1
   67    64    66    1
   68    64    67    1
   69    67    68    1
   70    67    69    1
   71    69    70    1
   72    67    71    1
   73    71    72    1
   74    71    73    1
   75    73    74    1
   76    45    75    1
   77    71    75    1
   78    75    76    1
   79    75    77    1
   80    77    78    1
   81    64    79    1
   82    77    79    1
   83    77    80    1
   84    80    81    1
   85    80    82    1
   86    80    83    1
   87    83    84    1
   88    85    86    1
   89    85    87    1
   90    85    88    1
   91    88    89    1
   92    88    90    1
   93    90    91    1
   94    88    92    1
   95    92    93    1
   96    92    94    1
   97    94    95    1
   98    66    96    1
   99    92    96    1
  100    96    97    1
  101    96    98    1
  102    98    99    1
  103    85   100    1
  104    98   100    1
  105    98   101    1
  106   101   102    1
  107   101   103    1
  108   101   104    1
  109   104   105    1
  110   106   107    1
  111    12   108    1
  112   106   108    1
  113   106   109    1
  114   109   110    1
  115   109   111    1
  116   111   112    1
  117   109   113    1
  118   113   114    1
  119   113   115    1
  120   115   116    1
  121    87   117    1
  122   113   117    1
  123   117   118    1
  124   117   119    1
  125   119   120    1
  126   106   121    1
  127   119   121    1
  128   119   122    1
  129   122   123    1
  130   122   124    1
  131   122   125    1
  132   125   126    1
  133   127   128    1
  134   127   129    2
  135   127   130    1
  136   130   131    1
  137   130   132    2
  138   132   133    1
  139   132   134    1
  140   134   135    1
  141   134   136    1
  142   134   137    1
  143   137   138    1
  144   137   139    1
  145   137   140    1
  146   140   141    1
  147   140   142    1
  148   140   143    1
@<TRIPOS>SUBSTRUCTURE
       1 MOL1            1 RESIDUE      1      MOL     
       2 MOL1          143 RESIDUE      1      MOL     
@<SCITEGIC>MOL_PROPERTY
feprocess Rank
SciTegic.value.IntegerValue
124

@<SCITEGIC>MOL_PROPERTY
Conf_Id
SciTegic.value.IntegerValue
709

@<SCITEGIC>MOL_PROPERTY
Probability
SciTegic.value.DoubleValue
0.00

@<SCITEGIC>MOL_PROPERTY
G
SciTegic.value.DoubleValue
502.262

@<SCITEGIC>MOL_PROPERTY
E
SciTegic.value.DoubleValue
318.491

@<SCITEGIC>MOL_PROPERTY
-TS
SciTegic.value.DoubleValue
183.771

@<SCITEGIC>MOL_PROPERTY
U+W
SciTegic.value.DoubleValue
192.402

@<SCITEGIC>MOL_PROPERTY
U
SciTegic.value.DoubleValue
269.537

@<SCITEGIC>MOL_PROPERTY
W
SciTegic.value.DoubleValue
-77.135

@<SCITEGIC>MOL_PROPERTY
W(PB)
SciTegic.value.DoubleValue
-83.114

@<SCITEGIC>MOL_PROPERTY
W(SA)
SciTegic.value.DoubleValue
5.979

@<SCITEGIC>MOL_PROPERTY
Valence
SciTegic.value.DoubleValue
146.362

@<SCITEGIC>MOL_PROPERTY
Coulomb
SciTegic.value.DoubleValue
143.092

@<SCITEGIC>MOL_PROPERTY
VdW
SciTegic.value.DoubleValue
-19.916

@<SCITEGIC>MOL_PROPERTY
VdW6
SciTegic.value.DoubleValue
-175.926

@<SCITEGIC>MOL_PROPERTY
VdW12
SciTegic.value.DoubleValue
156.010

@<SCITEGIC>MOL_PROPERTY
Bond
SciTegic.value.DoubleValue
5.220

@<SCITEGIC>MOL_PROPERTY
Angle
SciTegic.value.DoubleValue
16.378

@<SCITEGIC>MOL_PROPERTY
Pdih
SciTegic.value.DoubleValue
124.726

@<SCITEGIC>MOL_PROPERTY
Idih
SciTegic.value.DoubleValue
0.038

@<SCITEGIC>MOL_PROPERTY
Tether
SciTegic.value.DoubleValue
0.000

@<TRIPOS>MOLECULE
CD_guest-s19_fast_vm2_rndm.mol2 : feprocess host+ligand conformer 125
         143         148           2
SMALL
USER_CHARGES
 
@<TRIPOS>ATOM
       1    C1      16.398116   15.294849   22.194261 C.3        1 MOL1         0.2972
       2    H1      15.369012   15.171524   22.555605 H          1 MOL1         0.0751
       3    O1      16.661791   16.671301   21.849544 O.3        1 MOL1        -0.3740
       4    C2      17.387707   14.818036   23.288587 C.3        1 MOL1         0.1003
       5    H2      17.186960   13.752505   23.458740 H          1 MOL1         0.0783
       6    O2      17.159008   15.528144   24.516854 O.3        1 MOL1        -0.5519
       7    H3      18.034139   15.837965   24.865613 H          1 MOL1         0.3769
       8    C3      18.854895   14.941318   22.809756 C.3        1 MOL1         0.1053
       9    H4      19.095904   16.006303   22.703679 H          1 MOL1         0.0783
      10    O3      19.732015   14.334079   23.766578 O.3        1 MOL1        -0.5519
      11    H5      19.783432   14.964120   24.532560 H          1 MOL1         0.3769
      12    C4      19.066272   14.271928   21.428477 C.3        1 MOL1         0.1018
      13    H6      19.135630   13.184100   21.560660 H          1 MOL1         0.0783
      14    C5      17.942855   14.621874   20.412907 C.3        1 MOL1         0.1043
      15    H7      18.098268   15.664030   20.112724 H          1 MOL1         0.0783
      16    O4      16.625438   14.495944   21.011872 O.3        1 MOL1        -0.3740
      17    C6      17.986505   13.763194   19.126313 C.3        1 MOL1         0.0138
      18    H8      18.872277   14.052883   18.544897 H          1 MOL1         0.0794
      19    H9      17.104927   13.997975   18.514902 H          1 MOL1         0.0794
      20    O5      18.033127   12.360687   19.415627 O.3        1 MOL1        -0.5486
      21    H10     17.980895   11.877987   18.561947 H          1 MOL1         0.3769
      22    C7      14.695889   20.237874   20.984172 C.3        1 MOL1         0.2972
      23    H11     13.982666   21.008971   20.666249 H          1 MOL1         0.0751
      24    O6      15.945277   20.819945   21.404635 O.3        1 MOL1        -0.3740
      25    C8      14.119613   19.461154   22.191540 C.3        1 MOL1         0.1003
      26    H12     13.164633   19.022617   21.873963 H          1 MOL1         0.0783
      27    O7      13.888767   20.361267   23.287083 O.3        1 MOL1        -0.5519
      28    H13     14.620328   21.024055   23.260229 H          1 MOL1         0.3769
      29    C9      15.052654   18.304079   22.630810 C.3        1 MOL1         0.1053
      30    H14     15.947719   18.738816   23.096976 H          1 MOL1         0.0783
      31    O8      14.348822   17.495091   23.578259 O.3        1 MOL1        -0.5519
      32    H15     14.036231   18.117381   24.270245 H          1 MOL1         0.3769
      33    C10     15.510036   17.435206   21.428907 C.3        1 MOL1         0.1018
      34    H16     14.676250   16.786151   21.131231 H          1 MOL1         0.0783
      35    C11     15.946900   18.290621   20.208163 C.3        1 MOL1         0.1043
      36    H17     16.882272   18.792710   20.474600 H          1 MOL1         0.0783
      37    O9      14.942491   19.294651   19.919993 O.3        1 MOL1        -0.3740
      38    C12     16.216508   17.478867   18.913340 C.3        1 MOL1         0.0138
      39    H18     17.276299   17.197966   18.893241 H          1 MOL1         0.0794
      40    H19     16.050847   18.133230   18.047240 H          1 MOL1         0.0794
      41    O10     15.401854   16.305220   18.798395 O.3        1 MOL1        -0.5486
      42    H20     15.669618   15.688437   19.518875 H          1 MOL1         0.3769
      43    C13     18.547506   23.997212   20.611871 C.3        1 MOL1         0.2972
      44    H21     19.001646   24.930522   20.254819 H          1 MOL1         0.0751
      45    O11     19.522772   23.133363   21.224778 O.3        1 MOL1        -0.3740
      46    C14     17.424201   24.280148   21.643515 C.3        1 MOL1         0.1003
      47    H22     16.670390   24.900384   21.141474 H          1 MOL1         0.0783
      48    O12     17.930246   24.990140   22.785212 O.3        1 MOL1        -0.5519
      49    H23     18.700352   24.474078   23.135956 H          1 MOL1         0.3769
      50    C15     16.738127   22.963470   22.087053 C.3        1 MOL1         0.1053
      51    H24     17.468656   22.374769   22.658821 H          1 MOL1         0.0783
      52    O13     15.609888   23.269767   22.914173 O.3        1 MOL1        -0.5519
      53    H25     15.934706   23.942547   23.552732 H          1 MOL1         0.3769
      54    C16     16.283186   22.116701   20.870423 C.3        1 MOL1         0.1018
      55    H26     15.416064   22.610589   20.412899 H          1 MOL1         0.0783
      56    C17     17.422036   21.967584   19.818144 C.3        1 MOL1         0.1043
      57    H27     18.213690   21.349369   20.257104 H          1 MOL1         0.0783
      58    O14     17.954895   23.279558   19.508287 O.3        1 MOL1        -0.3740
      59    C18     17.020685   21.296418   18.480292 C.3        1 MOL1         0.0138
      60    H28     17.165936   20.214387   18.575457 H          1 MOL1         0.0794
      61    H29     17.713414   21.637139   17.699238 H          1 MOL1         0.0794
      62    O15     15.671100   21.569955   18.089309 O.3        1 MOL1        -0.5486
      63    H30     15.109820   20.896356   18.536696 H          1 MOL1         0.3769
      64    C19     23.498841   22.753340   22.202452 C.3        1 MOL1         0.2972
      65    H31     24.559035   22.871256   22.460947 H          1 MOL1         0.0751
      66    O16     23.151157   21.370940   21.985590 O.3        1 MOL1        -0.3740
      67    C20     22.614665   23.308209   23.344142 C.3        1 MOL1         0.1003
      68    H32     22.822032   24.382460   23.434122 H          1 MOL1         0.0783
      69    O17     22.921614   22.659982   24.588710 O.3        1 MOL1        -0.5519
      70    H33     23.340080   21.790790   24.367354 H          1 MOL1         0.3769
      71    C21     21.119747   23.135847   22.998073 C.3        1 MOL1         0.1053
      72    H34     20.908943   22.060319   22.978941 H          1 MOL1         0.0783
      73    O18     20.320969   23.767885   24.003655 O.3        1 MOL1        -0.5519
      74    H35     20.709750   23.468189   24.855770 H          1 MOL1         0.3769
      75    C22     20.781463   23.723287   21.604866 C.3        1 MOL1         0.1018
      76    H36     20.713663   24.815607   21.694714 H          1 MOL1         0.0783
      77    C23     21.821421   23.334457   20.511260 C.3        1 MOL1         0.1043
      78    H37     21.655693   22.281879   20.253076 H          1 MOL1         0.0783
      79    O19     23.180542   23.485725   21.000698 O.3        1 MOL1        -0.3740
      80    C24     21.679295   24.147686   19.202783 C.3        1 MOL1         0.0138
      81    H38     20.758999   23.831006   18.693530 H          1 MOL1         0.0794
      82    H39     22.519823   23.897479   18.541507 H          1 MOL1         0.0794
      83    O20     21.639448   25.559246   19.446241 O.3        1 MOL1        -0.5486
      84    H40     21.629919   26.011869   18.574718 H          1 MOL1         0.3769
      85    C25     25.022477   17.649886   21.483286 C.3        1 MOL1         0.2972
      86    H41     25.785565   16.881445   21.305380 H          1 MOL1         0.0751
      87    O21     23.714572   17.063084   21.630544 O.3        1 MOL1        -0.3740
      88    C26     25.343284   18.404361   22.799253 C.3        1 MOL1         0.1003
      89    H42     26.344950   18.841174   22.694669 H          1 MOL1         0.0783
      90    O22     25.337443   17.493563   23.909071 O.3        1 MOL1        -0.5519
      91    H43     24.607000   16.851738   23.740688 H          1 MOL1         0.3769
      92    C27     24.341232   19.558866   23.041415 C.3        1 MOL1         0.1053
      93    H44     23.349312   19.123889   23.226039 H          1 MOL1         0.0783
      94    O23     24.758352   20.322710   24.177382 O.3        1 MOL1        -0.5519
      95    H45     24.972464   19.655388   24.867430 H          1 MOL1         0.3769
      96    C28     24.252859   20.465864   21.791573 C.3        1 MOL1         0.1018
      97    H46     25.205744   20.998352   21.672305 H          1 MOL1         0.0783
      98    C29     23.976567   19.636035   20.509532 C.3        1 MOL1         0.1043
      99    H47     22.991277   19.164821   20.608460 H          1 MOL1         0.0783
     100    O24     24.986810   18.601182   20.393313 O.3        1 MOL1        -0.3740
     101    C30     23.949867   20.469266   19.201120 C.3        1 MOL1         0.0138
     102    H48     22.924467   20.825969   19.040137 H          1 MOL1         0.0794
     103    H49     24.193436   19.809308   18.358077 H          1 MOL1         0.0794
     104    O25     24.845462   21.587339   19.222426 O.3        1 MOL1        -0.5486
     105    H50     24.439758   22.271945   19.803805 H          1 MOL1         0.3769
     106    C31     21.285342   13.943171   20.371970 C.3        1 MOL1         0.2972
     107    H51     20.833693   13.047059   19.927403 H          1 MOL1         0.0751
     108    O26     20.281642   14.837176   20.897676 O.3        1 MOL1        -0.3740
     109    C32     22.308507   13.574409   21.479650 C.3        1 MOL1         0.1003
     110    H52     23.119511   13.018111   20.991799 H          1 MOL1         0.0783
     111    O27     21.731586   12.740300   22.494440 O.3        1 MOL1        -0.5519
     112    H53     21.020622   13.271544   22.933752 H          1 MOL1         0.3769
     113    C33     22.922640   14.856943   22.094842 C.3        1 MOL1         0.1053
     114    H54     22.126471   15.404386   22.619209 H          1 MOL1         0.0783
     115    O28     23.953761   14.496329   23.020180 O.3        1 MOL1        -0.5519
     116    H55     23.564559   13.787326   23.578059 H          1 MOL1         0.3769
     117    C34     23.508230   15.783449   20.996784 C.3        1 MOL1         0.1018
     118    H56     24.448906   15.340287   20.645032 H          1 MOL1         0.0783
     119    C35     22.534953   15.967917   19.794568 C.3        1 MOL1         0.1043
     120    H57     21.699795   16.585529   20.139126 H          1 MOL1         0.0783
     121    O29     22.024827   14.676831   19.371940 O.3        1 MOL1        -0.3740
     122    C36     23.129330   16.679343   18.552342 C.3        1 MOL1         0.0138
     123    H58     22.966881   17.758147   18.658816 H          1 MOL1         0.0794
     124    H59     22.563095   16.363137   17.666110 H          1 MOL1         0.0794
     125    O30     24.523915   16.419730   18.360094 O.3        1 MOL1        -0.5486
     126    H60     25.008223   17.060749   18.929451 H          1 MOL1         0.3769
     127    C1      20.502100   17.322403   25.389482 C.2        1 MOL1         0.6173
     128    O1      19.618346   16.490476   25.496260 O.co2      1 MOL1        -0.6755
     129    O2      21.532965   17.280704   26.031318 O.co2      1 MOL1        -0.6755
     130    C2      20.351025   18.427813   24.406038 C.2        1 MOL1        -0.1504
     131    H1      21.182820   19.125618   24.351405 H          1 MOL1         0.0814
     132    C3      19.271023   18.592674   23.607770 C.2        1 MOL1        -0.1394
     133    H2      18.423040   17.912479   23.661877 H          1 MOL1         0.0817
     134    C4      19.135588   19.720836   22.609771 C.3        1 MOL1        -0.1849
     135    H3      19.221886   20.674664   23.143056 H          1 MOL1         0.0736
     136    H4      18.132670   19.710786   22.172503 H          1 MOL1         0.0736
     137    C5      20.197688   19.654718   21.489142 C.3        1 MOL1        -0.1866
     138    H5      20.279403   20.633925   21.006842 H          1 MOL1         0.0738
     139    H6      21.179478   19.443891   21.929307 H          1 MOL1         0.0738
     140    C6      19.869653   18.604109   20.411427 C.3        1 MOL1        -0.2879
     141    H7      18.958653   18.873180   19.868825 H          1 MOL1         0.0750
     142    H8      20.680764   18.543908   19.676700 H          1 MOL1         0.0750
     143    H9      19.727616   17.612838   20.860405 H          1 MOL1         0.0750
@<TRIPOS>BOND
    1     1     2    1
    2     1     3    1
    3     1     4    1
    4     4     5    1
    5     4     6    1
    6     6     7    1
    7     4     8    1
    8     8     9    1
    9     8    10    1
   10    10    11    1
   11     8    12    1
   12    12    13    1
   13    12    14    1
   14    14    15    1
   15     1    16    1
   16    14    16    1
   17    14    17    1
   18    17    18    1
   19    17    19    1
   20    17    20    1
   21    20    21    1
   22    22    23    1
   23    22    24    1
   24    22    25    1
   25    25    26    1
   26    25    27    1
   27    27    28    1
   28    25    29    1
   29    29    30    1
   30    29    31    1
   31    31    32    1
   32     3    33    1
   33    29    33    1
   34    33    34    1
   35    33    35    1
   36    35    36    1
   37    22    37    1
   38    35    37    1
   39    35    38    1
   40    38    39    1
   41    38    40    1
   42    38    41    1
   43    41    42    1
   44    43    44    1
   45    43    45    1
   46    43    46    1
   47    46    47    1
   48    46    48    1
   49    48    49    1
   50    46    50    1
   51    50    51    1
   52    50    52    1
   53    52    53    1
   54    24    54    1
   55    50    54    1
   56    54    55    1
   57    54    56    1
   58    56    57    1
   59    43    58    1
   60    56    58    1
   61    56    59    1
   62    59    60    1
   63    59    61    1
   64    59    62    1
   65    62    63    1
   66    64    65    1
   67    64    66    1
   68    64    67    1
   69    67    68    1
   70    67    69    1
   71    69    70    1
   72    67    71    1
   73    71    72    1
   74    71    73    1
   75    73    74    1
   76    45    75    1
   77    71    75    1
   78    75    76    1
   79    75    77    1
   80    77    78    1
   81    64    79    1
   82    77    79    1
   83    77    80    1
   84    80    81    1
   85    80    82    1
   86    80    83    1
   87    83    84    1
   88    85    86    1
   89    85    87    1
   90    85    88    1
   91    88    89    1
   92    88    90    1
   93    90    91    1
   94    88    92    1
   95    92    93    1
   96    92    94    1
   97    94    95    1
   98    66    96    1
   99    92    96    1
  100    96    97    1
  101    96    98    1
  102    98    99    1
  103    85   100    1
  104    98   100    1
  105    98   101    1
  106   101   102    1
  107   101   103    1
  108   101   104    1
  109   104   105    1
  110   106   107    1
  111    12   108    1
  112   106   108    1
  113   106   109    1
  114   109   110    1
  115   109   111    1
  116   111   112    1
  117   109   113    1
  118   113   114    1
  119   113   115    1
  120   115   116    1
  121    87   117    1
  122   113   117    1
  123   117   118    1
  124   117   119    1
  125   119   120    1
  126   106   121    1
  127   119   121    1
  128   119   122    1
  129   122   123    1
  130   122   124    1
  131   122   125    1
  132   125   126    1
  133   127   128    1
  134   127   129    2
  135   127   130    1
  136   130   131    1
  137   130   132    2
  138   132   133    1
  139   132   134    1
  140   134   135    1
  141   134   136    1
  142   134   137    1
  143   137   138    1
  144   137   139    1
  145   137   140    1
  146   140   141    1
  147   140   142    1
  148   140   143    1
@<TRIPOS>SUBSTRUCTURE
       1 MOL1            1 RESIDUE      1      MOL     
       2 MOL1          143 RESIDUE      1      MOL     
@<SCITEGIC>MOL_PROPERTY
feprocess Rank
SciTegic.value.IntegerValue
125

@<SCITEGIC>MOL_PROPERTY
Conf_Id
SciTegic.value.IntegerValue
991

@<SCITEGIC>MOL_PROPERTY
Probability
SciTegic.value.DoubleValue
0.00

@<SCITEGIC>MOL_PROPERTY
G
SciTegic.value.DoubleValue
502.405

@<SCITEGIC>MOL_PROPERTY
E
SciTegic.value.DoubleValue
318.882

@<SCITEGIC>MOL_PROPERTY
-TS
SciTegic.value.DoubleValue
183.522

@<SCITEGIC>MOL_PROPERTY
U+W
SciTegic.value.DoubleValue
192.794

@<SCITEGIC>MOL_PROPERTY
U
SciTegic.value.DoubleValue
269.205

@<SCITEGIC>MOL_PROPERTY
W
SciTegic.value.DoubleValue
-76.411

@<SCITEGIC>MOL_PROPERTY
W(PB)
SciTegic.value.DoubleValue
-82.379

@<SCITEGIC>MOL_PROPERTY
W(SA)
SciTegic.value.DoubleValue
5.967

@<SCITEGIC>MOL_PROPERTY
Valence
SciTegic.value.DoubleValue
151.507

@<SCITEGIC>MOL_PROPERTY
Coulomb
SciTegic.value.DoubleValue
142.026

@<SCITEGIC>MOL_PROPERTY
VdW
SciTegic.value.DoubleValue
-24.327

@<SCITEGIC>MOL_PROPERTY
VdW6
SciTegic.value.DoubleValue
-182.401

@<SCITEGIC>MOL_PROPERTY
VdW12
SciTegic.value.DoubleValue
158.074

@<SCITEGIC>MOL_PROPERTY
Bond
SciTegic.value.DoubleValue
4.974

@<SCITEGIC>MOL_PROPERTY
Angle
SciTegic.value.DoubleValue
14.684

@<SCITEGIC>MOL_PROPERTY
Pdih
SciTegic.value.DoubleValue
131.845

@<SCITEGIC>MOL_PROPERTY
Idih
SciTegic.value.DoubleValue
0.003

@<SCITEGIC>MOL_PROPERTY
Tether
SciTegic.value.DoubleValue
0.000

@<TRIPOS>MOLECULE
CD_guest-s19_fast_vm2_rndm.mol2 : feprocess host+ligand conformer 126
         143         148           2
SMALL
USER_CHARGES
 
@<TRIPOS>ATOM
       1    C1      16.229194   15.278537   21.330621 C.3        1 MOL1         0.2972
       2    H1      15.178911   15.041381   21.117461 H          1 MOL1         0.0751
       3    O1      16.413383   16.692919   21.518908 O.3        1 MOL1        -0.3740
       4    C2      16.664596   14.567110   22.637372 C.3        1 MOL1         0.1003
       5    H2      16.491188   13.491564   22.502712 H          1 MOL1         0.0783
       6    O2      15.880742   15.039894   23.743385 O.3        1 MOL1        -0.5519
       7    H3      15.664733   15.981160   23.543299 H          1 MOL1         0.3769
       8    C3      18.171282   14.776894   22.916253 C.3        1 MOL1         0.1053
       9    H4      18.339859   15.840138   23.137298 H          1 MOL1         0.0783
      10    O3      18.568196   13.975290   24.034902 O.3        1 MOL1        -0.5519
      11    H5      17.882819   14.138553   24.720259 H          1 MOL1         0.3769
      12    C4      19.008412   14.404353   21.672120 C.3        1 MOL1         0.1018
      13    H6      18.935587   13.320884   21.509781 H          1 MOL1         0.0783
      14    C5      18.494368   15.148549   20.410150 C.3        1 MOL1         0.1043
      15    H7      18.630954   16.226577   20.571226 H          1 MOL1         0.0783
      16    O4      17.082912   14.851329   20.245856 O.3        1 MOL1        -0.3740
      17    C6      19.221072   14.787144   19.088945 C.3        1 MOL1         0.0138
      18    H8      20.095074   15.441448   18.981921 H          1 MOL1         0.0794
      19    H9      18.554182   15.018490   18.248113 H          1 MOL1         0.0794
      20    O5      19.629949   13.415845   19.026016 O.3        1 MOL1        -0.5486
      21    H10     20.472689   13.350412   19.532790 H          1 MOL1         0.3769
      22    C7      14.949945   20.392955   20.345518 C.3        1 MOL1         0.2972
      23    H11     14.418419   21.238672   19.890564 H          1 MOL1         0.0751
      24    O6      16.091928   20.818687   21.107251 O.3        1 MOL1        -0.3740
      25    C8      14.028120   19.602365   21.305873 C.3        1 MOL1         0.1003
      26    H12     13.183855   19.221115   20.716983 H          1 MOL1         0.0783
      27    O7      13.534932   20.451241   22.355655 O.3        1 MOL1        -0.5519
      28    H13     14.317771   20.914740   22.748793 H          1 MOL1         0.3769
      29    C9      14.784675   18.392752   21.908295 C.3        1 MOL1         0.1053
      30    H14     15.556412   18.782964   22.584493 H          1 MOL1         0.0783
      31    O8      13.868712   17.577543   22.646794 O.3        1 MOL1        -0.5519
      32    H15     13.357282   18.204226   23.204674 H          1 MOL1         0.3769
      33    C10     15.486608   17.543531   20.816117 C.3        1 MOL1         0.1018
      34    H16     14.717161   16.967727   20.285563 H          1 MOL1         0.0783
      35    C11     16.274069   18.414511   19.792400 C.3        1 MOL1         0.1043
      36    H17     17.147931   18.842582   20.300393 H          1 MOL1         0.0783
      37    O9      15.410685   19.480912   19.328651 O.3        1 MOL1        -0.3740
      38    C12     16.806217   17.666399   18.543565 C.3        1 MOL1         0.0138
      39    H18     17.808495   17.284130   18.765756 H          1 MOL1         0.0794
      40    H19     16.929202   18.393655   17.729899 H          1 MOL1         0.0794
      41    O10     15.958651   16.591163   18.121343 O.3        1 MOL1        -0.5486
      42    H20     16.155996   15.829535   18.714668 H          1 MOL1         0.3769
      43    C13     18.414630   24.109452   21.944923 C.3        1 MOL1         0.2972
      44    H21     18.822542   25.111298   22.130401 H          1 MOL1         0.0751
      45    O11     19.438086   23.099172   21.998367 O.3        1 MOL1        -0.3740
      46    C14     17.361500   23.767142   23.025244 C.3        1 MOL1         0.1003
      47    H22     16.558015   24.511914   22.956417 H          1 MOL1         0.0783
      48    O12     17.954958   23.823033   24.332495 O.3        1 MOL1        -0.5519
      49    H23     18.908354   23.584214   24.223055 H          1 MOL1         0.3769
      50    C15     16.747307   22.372125   22.768669 C.3        1 MOL1         0.1053
      51    H24     17.528048   21.618500   22.936770 H          1 MOL1         0.0783
      52    O13     15.659088   22.151260   23.673495 O.3        1 MOL1        -0.5519
      53    H25     16.013151   22.391299   24.558317 H          1 MOL1         0.3769
      54    C16     16.251644   22.229387   21.310500 C.3        1 MOL1         0.1018
      55    H26     15.303973   22.774033   21.204955 H          1 MOL1         0.0783
      56    C17     17.288473   22.733978   20.267754 C.3        1 MOL1         0.1043
      57    H27     18.120946   22.018252   20.252699 H          1 MOL1         0.0783
      58    O14     17.784729   24.043370   20.649279 O.3        1 MOL1        -0.3740
      59    C18     16.739749   22.819062   18.823912 C.3        1 MOL1         0.0138
      60    H28     16.619929   21.797778   18.437371 H          1 MOL1         0.0794
      61    H29     17.488883   23.316545   18.193599 H          1 MOL1         0.0794
      62    O15     15.489875   23.518029   18.760521 O.3        1 MOL1        -0.5486
      63    H30     15.240112   23.595252   17.814051 H          1 MOL1         0.3769
      64    C19     23.568647   22.670983   21.580277 C.3        1 MOL1         0.2972
      65    H31     24.638199   22.871721   21.436708 H          1 MOL1         0.0751
      66    O16     23.307569   21.261612   21.705229 O.3        1 MOL1        -0.3740
      67    C20     23.081193   23.351456   22.883016 C.3        1 MOL1         0.1003
      68    H32     23.265874   24.429150   22.785477 H          1 MOL1         0.0783
      69    O17     23.809648   22.843624   24.012130 O.3        1 MOL1        -0.5519
      70    H33     24.115370   21.937052   23.764967 H          1 MOL1         0.3769
      71    C21     21.561885   23.139836   23.077438 C.3        1 MOL1         0.1053
      72    H34     21.381420   22.070194   23.254969 H          1 MOL1         0.0783
      73    O18     21.109610   23.902097   24.202077 O.3        1 MOL1        -0.5519
      74    H35     21.761635   23.715652   24.913686 H          1 MOL1         0.3769
      75    C22     20.786207   23.558631   21.806599 C.3        1 MOL1         0.1018
      76    H36     20.842364   24.650619   21.706978 H          1 MOL1         0.0783
      77    C23     21.372561   22.894477   20.528818 C.3        1 MOL1         0.1043
      78    H37     21.217135   21.812334   20.606133 H          1 MOL1         0.0783
      79    O19     22.795596   23.172258   20.467220 O.3        1 MOL1        -0.3740
      80    C24     20.727418   23.343107   19.192691 C.3        1 MOL1         0.0138
      81    H38     19.862860   22.698703   18.989853 H          1 MOL1         0.0794
      82    H39     21.445553   23.166792   18.380982 H          1 MOL1         0.0794
      83    O20     20.316906   24.715081   19.196839 O.3        1 MOL1        -0.5486
      84    H40     19.438806   24.744083   19.643297 H          1 MOL1         0.3769
      85    C25     24.920436   17.558742   20.709396 C.3        1 MOL1         0.2972
      86    H41     25.520225   16.733857   20.303603 H          1 MOL1         0.0751
      87    O21     23.736372   17.089025   21.374571 O.3        1 MOL1        -0.3740
      88    C26     25.723952   18.373385   21.754224 C.3        1 MOL1         0.1003
      89    H42     26.608315   18.782604   21.248894 H          1 MOL1         0.0783
      90    O22     26.141524   17.534882   22.844434 O.3        1 MOL1        -0.5519
      91    H43     25.349188   17.014862   23.133523 H          1 MOL1         0.3769
      92    C27     24.876270   19.557376   22.283031 C.3        1 MOL1         0.1053
      93    H44     24.037900   19.147324   22.863546 H          1 MOL1         0.0783
      94    O23     25.682490   20.390454   23.123313 O.3        1 MOL1        -0.5519
      95    H45     26.162030   19.769786   23.715836 H          1 MOL1         0.3769
      96    C28     24.289461   20.391593   21.117731 C.3        1 MOL1         0.1018
      97    H46     25.108528   20.949663   20.645457 H          1 MOL1         0.0783
      98    C29     23.593590   19.503704   20.047400 C.3        1 MOL1         0.1043
      99    H47     22.697510   19.053995   20.493558 H          1 MOL1         0.0783
     100    O24     24.514135   18.456812   19.653807 O.3        1 MOL1        -0.3740
     101    C30     23.131371   20.251139   18.769629 C.3        1 MOL1         0.0138
     102    H48     22.114342   20.627323   18.931738 H          1 MOL1         0.0794
     103    H49     23.066337   19.526238   17.947304 H          1 MOL1         0.0794
     104    O25     23.992681   21.336836   18.405416 O.3        1 MOL1        -0.5486
     105    H50     23.764936   22.090552   18.997703 H          1 MOL1         0.3769
     106    C31     21.357453   13.788825   21.908642 C.3        1 MOL1         0.2972
     107    H51     20.918323   12.789191   22.019817 H          1 MOL1         0.0751
     108    O26     20.354918   14.820677   21.952452 O.3        1 MOL1        -0.3740
     109    C32     22.353672   14.052988   23.061661 C.3        1 MOL1         0.1003
     110    H52     23.150456   13.300862   22.994810 H          1 MOL1         0.0783
     111    O27     21.688669   13.935599   24.329760 O.3        1 MOL1        -0.5519
     112    H53     20.747244   14.202887   24.183459 H          1 MOL1         0.3769
     113    C33     22.996361   15.450685   22.915259 C.3        1 MOL1         0.1053
     114    H54     22.214378   16.202005   23.086475 H          1 MOL1         0.0783
     115    O28     24.035053   15.608524   23.888591 O.3        1 MOL1        -0.5519
     116    H55     23.636911   15.307064   24.735301 H          1 MOL1         0.3769
     117    C34     23.572921   15.668980   21.495465 C.3        1 MOL1         0.1018
     118    H56     24.528159   15.132959   21.418837 H          1 MOL1         0.0783
     119    C35     22.604148   15.218238   20.365644 C.3        1 MOL1         0.1043
     120    H57     21.783279   15.946543   20.320604 H          1 MOL1         0.0783
     121    O29     22.066624   13.902255   20.658252 O.3        1 MOL1        -0.3740
     122    C36     23.251653   15.179266   18.961086 C.3        1 MOL1         0.0138
     123    H58     23.411502   16.211763   18.622576 H          1 MOL1         0.0794
     124    H59     22.542567   14.716431   18.261716 H          1 MOL1         0.0794
     125    O30     24.494320   14.464919   18.957752 O.3        1 MOL1        -0.5486
     126    H60     24.810682   14.422822   18.029128 H          1 MOL1         0.3769
     127    C1      19.873787   19.156443   19.815775 C.2        1 MOL1         0.6173
     128    O1      20.180903   18.063551   19.374291 O.co2      1 MOL1        -0.6755
     129    O2      19.491969   20.080747   19.123000 O.co2      1 MOL1        -0.6755
     130    C2      19.994483   19.414379   21.274912 C.2        1 MOL1        -0.1504
     131    H1      19.715108   20.411454   21.600397 H          1 MOL1         0.0814
     132    C3      20.423324   18.495201   22.169090 C.2        1 MOL1        -0.1394
     133    H2      20.699288   17.496704   21.836777 H          1 MOL1         0.0817
     134    C4      20.583765   18.747834   23.656196 C.3        1 MOL1        -0.1849
     135    H3      21.511571   19.309733   23.826741 H          1 MOL1         0.0736
     136    H4      20.707371   17.788293   24.175276 H          1 MOL1         0.0736
     137    C5      19.404463   19.515464   24.298887 C.3        1 MOL1        -0.1866
     138    H5      19.609648   19.654790   25.368786 H          1 MOL1         0.0738
     139    H6      19.335510   20.522386   23.868290 H          1 MOL1         0.0738
     140    C6      18.056361   18.781494   24.135601 C.3        1 MOL1        -0.2879
     141    H7      18.088852   17.792094   24.608872 H          1 MOL1         0.0750
     142    H8      17.244255   19.355570   24.599619 H          1 MOL1         0.0750
     143    H9      17.810306   18.645756   23.075257 H          1 MOL1         0.0750
@<TRIPOS>BOND
    1     1     2    1
    2     1     3    1
    3     1     4    1
    4     4     5    1
    5     4     6    1
    6     6     7    1
    7     4     8    1
    8     8     9    1
    9     8    10    1
   10    10    11    1
   11     8    12    1
   12    12    13    1
   13    12    14    1
   14    14    15    1
   15     1    16    1
   16    14    16    1
   17    14    17    1
   18    17    18    1
   19    17    19    1
   20    17    20    1
   21    20    21    1
   22    22    23    1
   23    22    24    1
   24    22    25    1
   25    25    26    1
   26    25    27    1
   27    27    28    1
   28    25    29    1
   29    29    30    1
   30    29    31    1
   31    31    32    1
   32     3    33    1
   33    29    33    1
   34    33    34    1
   35    33    35    1
   36    35    36    1
   37    22    37    1
   38    35    37    1
   39    35    38    1
   40    38    39    1
   41    38    40    1
   42    38    41    1
   43    41    42    1
   44    43    44    1
   45    43    45    1
   46    43    46    1
   47    46    47    1
   48    46    48    1
   49    48    49    1
   50    46    50    1
   51    50    51    1
   52    50    52    1
   53    52    53    1
   54    24    54    1
   55    50    54    1
   56    54    55    1
   57    54    56    1
   58    56    57    1
   59    43    58    1
   60    56    58    1
   61    56    59    1
   62    59    60    1
   63    59    61    1
   64    59    62    1
   65    62    63    1
   66    64    65    1
   67    64    66    1
   68    64    67    1
   69    67    68    1
   70    67    69    1
   71    69    70    1
   72    67    71    1
   73    71    72    1
   74    71    73    1
   75    73    74    1
   76    45    75    1
   77    71    75    1
   78    75    76    1
   79    75    77    1
   80    77    78    1
   81    64    79    1
   82    77    79    1
   83    77    80    1
   84    80    81    1
   85    80    82    1
   86    80    83    1
   87    83    84    1
   88    85    86    1
   89    85    87    1
   90    85    88    1
   91    88    89    1
   92    88    90    1
   93    90    91    1
   94    88    92    1
   95    92    93    1
   96    92    94    1
   97    94    95    1
   98    66    96    1
   99    92    96    1
  100    96    97    1
  101    96    98    1
  102    98    99    1
  103    85   100    1
  104    98   100    1
  105    98   101    1
  106   101   102    1
  107   101   103    1
  108   101   104    1
  109   104   105    1
  110   106   107    1
  111    12   108    1
  112   106   108    1
  113   106   109    1
  114   109   110    1
  115   109   111    1
  116   111   112    1
  117   109   113    1
  118   113   114    1
  119   113   115    1
  120   115   116    1
  121    87   117    1
  122   113   117    1
  123   117   118    1
  124   117   119    1
  125   119   120    1
  126   106   121    1
  127   119   121    1
  128   119   122    1
  129   122   123    1
  130   122   124    1
  131   122   125    1
  132   125   126    1
  133   127   128    1
  134   127   129    2
  135   127   130    1
  136   130   131    1
  137   130   132    2
  138   132   133    1
  139   132   134    1
  140   134   135    1
  141   134   136    1
  142   134   137    1
  143   137   138    1
  144   137   139    1
  145   137   140    1
  146   140   141    1
  147   140   142    1
  148   140   143    1
@<TRIPOS>SUBSTRUCTURE
       1 MOL1            1 RESIDUE      1      MOL     
       2 MOL1          143 RESIDUE      1      MOL     
@<SCITEGIC>MOL_PROPERTY
feprocess Rank
SciTegic.value.IntegerValue
126

@<SCITEGIC>MOL_PROPERTY
Conf_Id
SciTegic.value.IntegerValue
239

@<SCITEGIC>MOL_PROPERTY
Probability
SciTegic.value.DoubleValue
0.00

@<SCITEGIC>MOL_PROPERTY
G
SciTegic.value.DoubleValue
502.495

@<SCITEGIC>MOL_PROPERTY
E
SciTegic.value.DoubleValue
321.457

@<SCITEGIC>MOL_PROPERTY
-TS
SciTegic.value.DoubleValue
181.038

@<SCITEGIC>MOL_PROPERTY
U+W
SciTegic.value.DoubleValue
195.369

@<SCITEGIC>MOL_PROPERTY
U
SciTegic.value.DoubleValue
262.969

@<SCITEGIC>MOL_PROPERTY
W
SciTegic.value.DoubleValue
-67.600

@<SCITEGIC>MOL_PROPERTY
W(PB)
SciTegic.value.DoubleValue
-73.429

@<SCITEGIC>MOL_PROPERTY
W(SA)
SciTegic.value.DoubleValue
5.829

@<SCITEGIC>MOL_PROPERTY
Valence
SciTegic.value.DoubleValue
150.515

@<SCITEGIC>MOL_PROPERTY
Coulomb
SciTegic.value.DoubleValue
142.622

@<SCITEGIC>MOL_PROPERTY
VdW
SciTegic.value.DoubleValue
-30.167

@<SCITEGIC>MOL_PROPERTY
VdW6
SciTegic.value.DoubleValue
-184.883

@<SCITEGIC>MOL_PROPERTY
VdW12
SciTegic.value.DoubleValue
154.715

@<SCITEGIC>MOL_PROPERTY
Bond
SciTegic.value.DoubleValue
4.313

@<SCITEGIC>MOL_PROPERTY
Angle
SciTegic.value.DoubleValue
13.239

@<SCITEGIC>MOL_PROPERTY
Pdih
SciTegic.value.DoubleValue
132.960

@<SCITEGIC>MOL_PROPERTY
Idih
SciTegic.value.DoubleValue
0.003

@<SCITEGIC>MOL_PROPERTY
Tether
SciTegic.value.DoubleValue
0.000

@<TRIPOS>MOLECULE
CD_guest-s19_fast_vm2_rndm.mol2 : feprocess host+ligand conformer 127
         143         148           2
SMALL
USER_CHARGES
 
@<TRIPOS>ATOM
       1    C1      16.401077   15.271973   22.083739 C.3        1 MOL1         0.2972
       2    H1      15.370762   15.138967   22.438729 H          1 MOL1         0.0751
       3    O1      16.667356   16.640034   21.725071 O.3        1 MOL1        -0.3740
       4    C2      17.397074   14.859067   23.191595 C.3        1 MOL1         0.1003
       5    H2      17.232182   13.794964   23.404858 H          1 MOL1         0.0783
       6    O2      17.166065   15.621872   24.386615 O.3        1 MOL1        -0.5519
       7    H3      16.580193   16.377183   24.136956 H          1 MOL1         0.3769
       8    C3      18.855208   15.030542   22.707031 C.3        1 MOL1         0.1053
       9    H4      19.043221   16.103420   22.573917 H          1 MOL1         0.0783
      10    O3      19.739097   14.510179   23.704101 O.3        1 MOL1        -0.5519
      11    H5      19.474495   14.965515   24.535892 H          1 MOL1         0.3769
      12    C4      19.094198   14.321263   21.345900 C.3        1 MOL1         0.1018
      13    H6      19.186802   13.241797   21.519086 H          1 MOL1         0.0783
      14    C5      17.961953   14.605830   20.316344 C.3        1 MOL1         0.1043
      15    H7      18.080385   15.643120   19.977582 H          1 MOL1         0.0783
      16    O4      16.652563   14.454098   20.922911 O.3        1 MOL1        -0.3740
      17    C6      18.022266   13.706568   19.057791 C.3        1 MOL1         0.0138
      18    H8      18.941346   13.936699   18.502090 H          1 MOL1         0.0794
      19    H9      17.178521   13.967556   18.405102 H          1 MOL1         0.0794
      20    O5      17.976032   12.309454   19.377089 O.3        1 MOL1        -0.5486
      21    H10     18.792285   12.075155   19.864328 H          1 MOL1         0.3769
      22    C7      14.682084   20.258787   21.210906 C.3        1 MOL1         0.2972
      23    H11     13.935638   21.038563   21.012693 H          1 MOL1         0.0751
      24    O6      15.984252   20.826126   21.454107 O.3        1 MOL1        -0.3740
      25    C8      14.288701   19.468524   22.484281 C.3        1 MOL1         0.1003
      26    H12     13.305056   19.014826   22.306181 H          1 MOL1         0.0783
      27    O7      14.209673   20.355349   23.610987 O.3        1 MOL1        -0.5519
      28    H13     14.906596   21.040843   23.473797 H          1 MOL1         0.3769
      29    C9      15.301653   18.332004   22.763442 C.3        1 MOL1         0.1053
      30    H14     16.263503   18.788061   23.032462 H          1 MOL1         0.0783
      31    O8      14.833484   17.526492   23.849530 O.3        1 MOL1        -0.5519
      32    H15     14.530151   18.167871   24.530592 H          1 MOL1         0.3769
      33    C10     15.508687   17.459956   21.500972 C.3        1 MOL1         0.1018
      34    H16     14.605118   16.859024   21.333390 H          1 MOL1         0.0783
      35    C11     15.791105   18.311468   20.234785 C.3        1 MOL1         0.1043
      36    H17     16.765951   18.795081   20.360682 H          1 MOL1         0.0783
      37    O9      14.771194   19.334080   20.102145 O.3        1 MOL1        -0.3740
      38    C12     15.870253   17.490437   18.920362 C.3        1 MOL1         0.0138
      39    H18     16.910956   17.173177   18.775176 H          1 MOL1         0.0794
      40    H19     15.618100   18.148093   18.077918 H          1 MOL1         0.0794
      41    O10     15.017093   16.338934   18.916998 O.3        1 MOL1        -0.5486
      42    H20     15.402842   15.687665   19.547406 H          1 MOL1         0.3769
      43    C13     18.531283   23.942087   20.445982 C.3        1 MOL1         0.2972
      44    H21     19.009413   24.846895   20.049093 H          1 MOL1         0.0751
      45    O11     19.494306   23.050731   21.045758 O.3        1 MOL1        -0.3740
      46    C14     17.439773   24.292913   21.490750 C.3        1 MOL1         0.1003
      47    H22     16.670490   24.878436   20.970649 H          1 MOL1         0.0783
      48    O12     17.966533   25.078053   22.570540 O.3        1 MOL1        -0.5519
      49    H23     18.699389   24.554013   22.982827 H          1 MOL1         0.3769
      50    C15     16.772607   23.001538   22.024653 C.3        1 MOL1         0.1053
      51    H24     17.527652   22.432064   22.584924 H          1 MOL1         0.0783
      52    O13     15.685735   23.345896   22.890821 O.3        1 MOL1        -0.5519
      53    H25     16.036975   24.053715   23.475331 H          1 MOL1         0.3769
      54    C16     16.256612   22.111952   20.864034 C.3        1 MOL1         0.1018
      55    H26     15.351913   22.577976   20.452568 H          1 MOL1         0.0783
      56    C17     17.318366   21.933609   19.737885 C.3        1 MOL1         0.1043
      57    H27     18.119716   21.296806   20.130062 H          1 MOL1         0.0783
      58    O14     17.871497   23.225119   19.381496 O.3        1 MOL1        -0.3740
      59    C18     16.804662   21.266328   18.435607 C.3        1 MOL1         0.0138
      60    H28     16.939436   20.182583   18.519232 H          1 MOL1         0.0794
      61    H29     17.439282   21.596199   17.602234 H          1 MOL1         0.0794
      62    O15     15.432268   21.556386   18.149475 O.3        1 MOL1        -0.5486
      63    H30     14.895858   20.918803   18.674002 H          1 MOL1         0.3769
      64    C19     23.433897   22.707374   22.255031 C.3        1 MOL1         0.2972
      65    H31     24.474229   22.869449   22.564793 H          1 MOL1         0.0751
      66    O16     23.143064   21.307854   22.074236 O.3        1 MOL1        -0.3740
      67    C20     22.475937   23.270280   23.331422 C.3        1 MOL1         0.1003
      68    H32     22.663455   24.349295   23.407009 H          1 MOL1         0.0783
      69    O17     22.723657   22.659997   24.607715 O.3        1 MOL1        -0.5519
      70    H33     23.060915   21.746478   24.437371 H          1 MOL1         0.3769
      71    C21     21.001956   23.073557   22.912245 C.3        1 MOL1         0.1053
      72    H34     20.790966   21.998496   22.903323 H          1 MOL1         0.0783
      73    O18     20.157354   23.721847   23.867492 O.3        1 MOL1        -0.5519
      74    H35     20.511878   23.443895   24.742057 H          1 MOL1         0.3769
      75    C22     20.738370   23.627642   21.489343 C.3        1 MOL1         0.1018
      76    H36     20.690475   24.723553   21.540805 H          1 MOL1         0.0783
      77    C23     21.827032   23.184807   20.469151 C.3        1 MOL1         0.1043
      78    H37     21.680430   22.115232   20.271031 H          1 MOL1         0.0783
      79    O19     23.159002   23.385878   21.011686 O.3        1 MOL1        -0.3740
      80    C24     21.735149   23.918933   19.110365 C.3        1 MOL1         0.0138
      81    H38     20.837577   23.566269   18.584288 H          1 MOL1         0.0794
      82    H39     22.603441   23.637006   18.499761 H          1 MOL1         0.0794
      83    O20     21.677662   25.342037   19.268907 O.3        1 MOL1        -0.5486
      84    H40     21.700147   25.742913   18.372724 H          1 MOL1         0.3769
      85    C25     25.072384   17.645024   21.567103 C.3        1 MOL1         0.2972
      86    H41     25.817359   16.852532   21.420587 H          1 MOL1         0.0751
      87    O21     23.730557   17.121330   21.570171 O.3        1 MOL1        -0.3740
      88    C26     25.291222   18.327739   22.940902 C.3        1 MOL1         0.1003
      89    H42     26.294984   18.771446   22.945716 H          1 MOL1         0.0783
      90    O22     25.197821   17.344770   23.984591 O.3        1 MOL1        -0.5519
      91    H43     24.506018   16.697906   23.706517 H          1 MOL1         0.3769
      92    C27     24.258048   19.465158   23.139333 C.3        1 MOL1         0.1053
      93    H44     23.264254   19.004995   23.177681 H          1 MOL1         0.0783
      94    O23     24.502418   20.184685   24.354159 O.3        1 MOL1        -0.5519
      95    H45     23.993371   19.701426   25.057863 H          1 MOL1         0.3769
      96    C28     24.285021   20.440852   21.937442 C.3        1 MOL1         0.1018
      97    H46     25.232296   20.995420   21.959271 H          1 MOL1         0.0783
      98    C29     24.162375   19.690689   20.582416 C.3        1 MOL1         0.1043
      99    H47     23.165651   19.237660   20.534668 H          1 MOL1         0.0783
     100    O24     25.165199   18.643039   20.524449 O.3        1 MOL1        -0.3740
     101    C30     24.299054   20.589084   19.326030 C.3        1 MOL1         0.0138
     102    H48     23.305774   20.979293   19.070010 H          1 MOL1         0.0794
     103    H49     24.622532   19.964937   18.482399 H          1 MOL1         0.0794
     104    O25     25.207460   21.681329   19.506400 O.3        1 MOL1        -0.5486
     105    H50     24.721311   22.376183   20.008269 H          1 MOL1         0.3769
     106    C31     21.326265   14.003582   20.298608 C.3        1 MOL1         0.2972
     107    H51     20.896646   13.100544   19.848195 H          1 MOL1         0.0751
     108    O26     20.297082   14.890383   20.789851 O.3        1 MOL1        -0.3740
     109    C32     22.315078   13.646052   21.441037 C.3        1 MOL1         0.1003
     110    H52     23.137185   13.077807   20.986637 H          1 MOL1         0.0783
     111    O27     21.701033   12.833814   22.451984 O.3        1 MOL1        -0.5519
     112    H53     21.021005   13.398732   22.898524 H          1 MOL1         0.3769
     113    C33     22.913983   14.934977   22.054477 C.3        1 MOL1         0.1053
     114    H54     22.103565   15.494202   22.543289 H          1 MOL1         0.0783
     115    O28     23.915294   14.591508   23.018107 O.3        1 MOL1        -0.5519
     116    H55     23.518554   13.874901   23.560981 H          1 MOL1         0.3769
     117    C34     23.531863   15.837348   20.956711 C.3        1 MOL1         0.1018
     118    H56     24.474687   15.383509   20.624778 H          1 MOL1         0.0783
     119    C35     22.583325   16.027227   19.738290 C.3        1 MOL1         0.1043
     120    H57     21.738340   16.644784   20.060398 H          1 MOL1         0.0783
     121    O29     22.085209   14.734295   19.308827 O.3        1 MOL1        -0.3740
     122    C36     23.212155   16.752824   18.520727 C.3        1 MOL1         0.0138
     123    H58     23.046309   17.831143   18.636887 H          1 MOL1         0.0794
     124    H59     22.672599   16.445901   17.614858 H          1 MOL1         0.0794
     125    O30     24.613363   16.500438   18.368086 O.3        1 MOL1        -0.5486
     126    H60     25.078660   17.109094   18.986550 H          1 MOL1         0.3769
     127    C1      21.252134   18.758038   25.460026 C.2        1 MOL1         0.6173
     128    O1      22.311127   19.194125   25.873173 O.co2      1 MOL1        -0.6755
     129    O2      20.600992   17.912407   26.043973 O.co2      1 MOL1        -0.6755
     130    C2      20.780079   19.271851   24.146854 C.2        1 MOL1        -0.1504
     131    H1      21.409573   20.026794   23.689774 H          1 MOL1         0.0814
     132    C3      19.674213   18.841064   23.500493 C.2        1 MOL1        -0.1394
     133    H2      19.029968   18.076946   23.934380 H          1 MOL1         0.0817
     134    C4      19.289816   19.337726   22.123768 C.3        1 MOL1        -0.1849
     135    H3      19.449980   20.420170   22.056657 H          1 MOL1         0.0736
     136    H4      18.223159   19.169754   21.952063 H          1 MOL1         0.0736
     137    C5      20.116591   18.615349   21.041541 C.3        1 MOL1        -0.1866
     138    H5      21.178472   18.665100   21.311316 H          1 MOL1         0.0738
     139    H6      19.843693   17.553601   21.029088 H          1 MOL1         0.0738
     140    C6      19.919613   19.209877   19.634051 C.3        1 MOL1        -0.2879
     141    H7      18.877390   19.110530   19.312201 H          1 MOL1         0.0750
     142    H8      20.192490   20.272563   19.615173 H          1 MOL1         0.0750
     143    H9      20.547530   18.685664   18.902998 H          1 MOL1         0.0750
@<TRIPOS>BOND
    1     1     2    1
    2     1     3    1
    3     1     4    1
    4     4     5    1
    5     4     6    1
    6     6     7    1
    7     4     8    1
    8     8     9    1
    9     8    10    1
   10    10    11    1
   11     8    12    1
   12    12    13    1
   13    12    14    1
   14    14    15    1
   15     1    16    1
   16    14    16    1
   17    14    17    1
   18    17    18    1
   19    17    19    1
   20    17    20    1
   21    20    21    1
   22    22    23    1
   23    22    24    1
   24    22    25    1
   25    25    26    1
   26    25    27    1
   27    27    28    1
   28    25    29    1
   29    29    30    1
   30    29    31    1
   31    31    32    1
   32     3    33    1
   33    29    33    1
   34    33    34    1
   35    33    35    1
   36    35    36    1
   37    22    37    1
   38    35    37    1
   39    35    38    1
   40    38    39    1
   41    38    40    1
   42    38    41    1
   43    41    42    1
   44    43    44    1
   45    43    45    1
   46    43    46    1
   47    46    47    1
   48    46    48    1
   49    48    49    1
   50    46    50    1
   51    50    51    1
   52    50    52    1
   53    52    53    1
   54    24    54    1
   55    50    54    1
   56    54    55    1
   57    54    56    1
   58    56    57    1
   59    43    58    1
   60    56    58    1
   61    56    59    1
   62    59    60    1
   63    59    61    1
   64    59    62    1
   65    62    63    1
   66    64    65    1
   67    64    66    1
   68    64    67    1
   69    67    68    1
   70    67    69    1
   71    69    70    1
   72    67    71    1
   73    71    72    1
   74    71    73    1
   75    73    74    1
   76    45    75    1
   77    71    75    1
   78    75    76    1
   79    75    77    1
   80    77    78    1
   81    64    79    1
   82    77    79    1
   83    77    80    1
   84    80    81    1
   85    80    82    1
   86    80    83    1
   87    83    84    1
   88    85    86    1
   89    85    87    1
   90    85    88    1
   91    88    89    1
   92    88    90    1
   93    90    91    1
   94    88    92    1
   95    92    93    1
   96    92    94    1
   97    94    95    1
   98    66    96    1
   99    92    96    1
  100    96    97    1
  101    96    98    1
  102    98    99    1
  103    85   100    1
  104    98   100    1
  105    98   101    1
  106   101   102    1
  107   101   103    1
  108   101   104    1
  109   104   105    1
  110   106   107    1
  111    12   108    1
  112   106   108    1
  113   106   109    1
  114   109   110    1
  115   109   111    1
  116   111   112    1
  117   109   113    1
  118   113   114    1
  119   113   115    1
  120   115   116    1
  121    87   117    1
  122   113   117    1
  123   117   118    1
  124   117   119    1
  125   119   120    1
  126   106   121    1
  127   119   121    1
  128   119   122    1
  129   122   123    1
  130   122   124    1
  131   122   125    1
  132   125   126    1
  133   127   128    1
  134   127   129    2
  135   127   130    1
  136   130   131    1
  137   130   132    2
  138   132   133    1
  139   132   134    1
  140   134   135    1
  141   134   136    1
  142   134   137    1
  143   137   138    1
  144   137   139    1
  145   137   140    1
  146   140   141    1
  147   140   142    1
  148   140   143    1
@<TRIPOS>SUBSTRUCTURE
       1 MOL1            1 RESIDUE      1      MOL     
       2 MOL1          143 RESIDUE      1      MOL     
@<SCITEGIC>MOL_PROPERTY
feprocess Rank
SciTegic.value.IntegerValue
127

@<SCITEGIC>MOL_PROPERTY
Conf_Id
SciTegic.value.IntegerValue
269

@<SCITEGIC>MOL_PROPERTY
Probability
SciTegic.value.DoubleValue
0.00

@<SCITEGIC>MOL_PROPERTY
G
SciTegic.value.DoubleValue
502.532

@<SCITEGIC>MOL_PROPERTY
E
SciTegic.value.DoubleValue
321.531

@<SCITEGIC>MOL_PROPERTY
-TS
SciTegic.value.DoubleValue
181.001

@<SCITEGIC>MOL_PROPERTY
U+W
SciTegic.value.DoubleValue
195.442

@<SCITEGIC>MOL_PROPERTY
U
SciTegic.value.DoubleValue
276.792

@<SCITEGIC>MOL_PROPERTY
W
SciTegic.value.DoubleValue
-81.349

@<SCITEGIC>MOL_PROPERTY
W(PB)
SciTegic.value.DoubleValue
-87.271

@<SCITEGIC>MOL_PROPERTY
W(SA)
SciTegic.value.DoubleValue
5.922

@<SCITEGIC>MOL_PROPERTY
Valence
SciTegic.value.DoubleValue
152.132

@<SCITEGIC>MOL_PROPERTY
Coulomb
SciTegic.value.DoubleValue
150.872

@<SCITEGIC>MOL_PROPERTY
VdW
SciTegic.value.DoubleValue
-26.212

@<SCITEGIC>MOL_PROPERTY
VdW6
SciTegic.value.DoubleValue
-180.277

@<SCITEGIC>MOL_PROPERTY
VdW12
SciTegic.value.DoubleValue
154.065

@<SCITEGIC>MOL_PROPERTY
Bond
SciTegic.value.DoubleValue
4.740

@<SCITEGIC>MOL_PROPERTY
Angle
SciTegic.value.DoubleValue
14.535

@<SCITEGIC>MOL_PROPERTY
Pdih
SciTegic.value.DoubleValue
132.847

@<SCITEGIC>MOL_PROPERTY
Idih
SciTegic.value.DoubleValue
0.010

@<SCITEGIC>MOL_PROPERTY
Tether
SciTegic.value.DoubleValue
0.000

@<TRIPOS>MOLECULE
CD_guest-s19_fast_vm2_rndm.mol2 : feprocess host+ligand conformer 128
         143         148           2
SMALL
USER_CHARGES
 
@<TRIPOS>ATOM
       1    C1      16.192892   15.269090   21.243478 C.3        1 MOL1         0.2972
       2    H1      15.147263   15.031896   21.009512 H          1 MOL1         0.0751
       3    O1      16.390634   16.689430   21.391413 O.3        1 MOL1        -0.3740
       4    C2      16.587299   14.602282   22.584886 C.3        1 MOL1         0.1003
       5    H2      16.432151   13.520795   22.481657 H          1 MOL1         0.0783
       6    O2      15.735315   15.106451   23.627462 O.3        1 MOL1        -0.5519
       7    H3      15.557367   16.053558   23.414202 H          1 MOL1         0.3769
       8    C3      18.088077   14.840660   22.900779 C.3        1 MOL1         0.1053
       9    H4      18.227937   15.912963   23.082738 H          1 MOL1         0.0783
      10    O3      18.481123   14.103573   24.062833 O.3        1 MOL1        -0.5519
      11    H5      19.153774   14.676245   24.515966 H          1 MOL1         0.3769
      12    C4      18.974796   14.428171   21.695968 C.3        1 MOL1         0.1018
      13    H6      18.915185   13.337584   21.585173 H          1 MOL1         0.0783
      14    C5      18.475539   15.099472   20.384826 C.3        1 MOL1         0.1043
      15    H7      18.593379   16.183580   20.493167 H          1 MOL1         0.0783
      16    O4      17.070157   14.792341   20.200474 O.3        1 MOL1        -0.3740
      17    C6      19.229632   14.683509   19.096646 C.3        1 MOL1         0.0138
      18    H8      20.119435   15.315930   18.993010 H          1 MOL1         0.0794
      19    H9      18.587392   14.897071   18.232026 H          1 MOL1         0.0794
      20    O5      19.614115   13.304739   19.089405 O.3        1 MOL1        -0.5486
      21    H10     20.465305   13.247665   19.582922 H          1 MOL1         0.3769
      22    C7      14.889835   20.391143   20.257364 C.3        1 MOL1         0.2972
      23    H11     14.329421   21.233815   19.832381 H          1 MOL1         0.0751
      24    O6      16.141859   20.821879   20.831694 O.3        1 MOL1        -0.3740
      25    C8      14.060570   19.645662   21.336921 C.3        1 MOL1         0.1003
      26    H12     13.178297   19.228259   20.834376 H          1 MOL1         0.0783
      27    O7      13.621110   20.525987   22.381640 O.3        1 MOL1        -0.5519
      28    H13     14.432934   20.901650   22.807009 H          1 MOL1         0.3769
      29    C9      14.877809   18.465470   21.918137 C.3        1 MOL1         0.1053
      30    H14     15.745363   18.876239   22.453575 H          1 MOL1         0.0783
      31    O8      14.061518   17.714884   22.823296 O.3        1 MOL1        -0.5519
      32    H15     13.606206   18.386693   23.377798 H          1 MOL1         0.3769
      33    C10     15.395902   17.539216   20.788614 C.3        1 MOL1         0.1018
      34    H16     14.542995   16.967286   20.400741 H          1 MOL1         0.0783
      35    C11     16.059508   18.332963   19.625545 C.3        1 MOL1         0.1043
      36    H17     17.002910   18.750089   19.990852 H          1 MOL1         0.0783
      37    O9      15.191389   19.423948   19.225585 O.3        1 MOL1        -0.3740
      38    C12     16.411233   17.491248   18.372169 C.3        1 MOL1         0.0138
      39    H18     17.414367   17.069102   18.509160 H          1 MOL1         0.0794
      40    H19     16.465513   18.162828   17.505029 H          1 MOL1         0.0794
      41    O10     15.480907   16.433134   18.117661 O.3        1 MOL1        -0.5486
      42    H20     15.763041   15.671483   18.673817 H          1 MOL1         0.3769
      43    C13     18.427717   23.997567   22.070992 C.3        1 MOL1         0.2972
      44    H21     18.859198   24.953757   22.394556 H          1 MOL1         0.0751
      45    O11     19.446462   23.011322   21.821620 O.3        1 MOL1        -0.3740
      46    C14     17.481987   23.447912   23.163222 C.3        1 MOL1         0.1003
      47    H22     16.662611   24.168300   23.284937 H          1 MOL1         0.0783
      48    O12     18.178811   23.305663   24.411727 O.3        1 MOL1        -0.5519
      49    H23     19.144806   23.360859   24.208232 H          1 MOL1         0.3769
      50    C15     16.872452   22.096233   22.726715 C.3        1 MOL1         0.1053
      51    H24     17.681729   21.357049   22.693396 H          1 MOL1         0.0783
      52    O13     15.900972   21.692359   23.695651 O.3        1 MOL1        -0.5519
      53    H25     16.346355   21.824631   24.562814 H          1 MOL1         0.3769
      54    C16     16.231203   22.177186   21.315330 C.3        1 MOL1         0.1018
      55    H26     15.244994   22.652324   21.400834 H          1 MOL1         0.0783
      56    C17     17.112954   22.946683   20.287753 C.3        1 MOL1         0.1043
      57    H27     17.941586   22.286213   20.006772 H          1 MOL1         0.0783
      58    O14     17.660252   24.163301   20.860716 O.3        1 MOL1        -0.3740
      59    C18     16.365175   23.310504   18.983151 C.3        1 MOL1         0.0138
      60    H28     16.178421   22.386283   18.419648 H          1 MOL1         0.0794
      61    H29     17.020448   23.941014   18.367106 H          1 MOL1         0.0794
      62    O15     15.125534   23.981391   19.240870 O.3        1 MOL1        -0.5486
      63    H30     14.746444   24.250177   18.375614 H          1 MOL1         0.3769
      64    C19     23.607436   22.743623   21.477292 C.3        1 MOL1         0.2972
      65    H31     24.662098   22.993250   21.304578 H          1 MOL1         0.0751
      66    O16     23.439613   21.338644   21.751285 O.3        1 MOL1        -0.3740
      67    C20     23.084129   23.521530   22.712329 C.3        1 MOL1         0.1003
      68    H32     23.223378   24.592271   22.514344 H          1 MOL1         0.0783
      69    O17     23.831591   23.151743   23.881650 O.3        1 MOL1        -0.5519
      70    H33     24.082693   22.203757   23.763819 H          1 MOL1         0.3769
      71    C21     21.573474   23.267324   22.935798 C.3        1 MOL1         0.1053
      72    H34     21.444922   22.216830   23.226004 H          1 MOL1         0.0783
      73    O18     21.090811   24.119207   23.979581 O.3        1 MOL1        -0.5519
      74    H35     21.766448   24.057215   24.691528 H          1 MOL1         0.3769
      75    C22     20.779148   23.514642   21.630651 C.3        1 MOL1         0.1018
      76    H36     20.783173   24.589674   21.406756 H          1 MOL1         0.0783
      77    C23     21.397120   22.746587   20.433695 C.3        1 MOL1         0.1043
      78    H37     21.301856   21.671275   20.631437 H          1 MOL1         0.0783
      79    O19     22.801517   23.092296   20.328139 O.3        1 MOL1        -0.3740
      80    C24     20.703382   23.019906   19.072934 C.3        1 MOL1         0.0138
      81    H38     19.899981   22.283858   18.942081 H          1 MOL1         0.0794
      82    H39     21.427561   22.845111   18.266237 H          1 MOL1         0.0794
      83    O20     20.162024   24.342868   18.967712 O.3        1 MOL1        -0.5486
      84    H40     19.396617   24.395782   19.585920 H          1 MOL1         0.3769
      85    C25     25.053834   17.591946   20.850333 C.3        1 MOL1         0.2972
      86    H41     25.681316   16.767086   20.491373 H          1 MOL1         0.0751
      87    O21     23.789927   17.124169   21.359458 O.3        1 MOL1        -0.3740
      88    C26     25.773067   18.387357   21.970756 C.3        1 MOL1         0.1003
      89    H42     26.696249   18.795186   21.538904 H          1 MOL1         0.0783
      90    O22     26.113235   17.538320   23.077215 O.3        1 MOL1        -0.5519
      91    H43     25.301844   17.021179   23.315667 H          1 MOL1         0.3769
      92    C27     24.903784   19.580558   22.440864 C.3        1 MOL1         0.1053
      93    H44     24.003805   19.179330   22.927945 H          1 MOL1         0.0783
      94    O23     25.645483   20.376417   23.371733 O.3        1 MOL1        -0.5519
      95    H45     26.051221   19.731708   23.992943 H          1 MOL1         0.3769
      96    C28     24.457588   20.453999   21.240626 C.3        1 MOL1         0.1018
      97    H46     25.332477   21.003073   20.868639 H          1 MOL1         0.0783
      98    C29     23.857786   19.587410   20.095693 C.3        1 MOL1         0.1043
      99    H47     22.918852   19.158312   20.462013 H          1 MOL1         0.0783
     100    O24     24.777544   18.513739   19.775849 O.3        1 MOL1        -0.3740
     101    C30     23.533144   20.339984   18.780682 C.3        1 MOL1         0.0138
     102    H48     22.512390   20.733565   18.846409 H          1 MOL1         0.0794
     103    H49     23.537152   19.615469   17.955445 H          1 MOL1         0.0794
     104    O25     24.445012   21.406833   18.498940 O.3        1 MOL1        -0.5486
     105    H50     24.121014   22.190561   18.999728 H          1 MOL1         0.3769
     106    C31     21.348387   13.841123   21.919593 C.3        1 MOL1         0.2972
     107    H51     20.918313   12.838025   22.032587 H          1 MOL1         0.0751
     108    O26     20.325731   14.863267   21.975881 O.3        1 MOL1        -0.3740
     109    C32     22.394903   14.079230   23.036722 C.3        1 MOL1         0.1003
     110    H52     23.207537   13.359560   22.874435 H          1 MOL1         0.0783
     111    O27     21.835648   13.840843   24.336297 O.3        1 MOL1        -0.5519
     112    H53     21.284424   14.630561   24.576512 H          1 MOL1         0.3769
     113    C33     22.990943   15.499631   22.903494 C.3        1 MOL1         0.1053
     114    H54     22.174973   16.223575   22.998514 H          1 MOL1         0.0783
     115    O28     23.976597   15.737330   23.916663 O.3        1 MOL1        -0.5519
     116    H55     23.468920   15.849912   24.762911 H          1 MOL1         0.3769
     117    C34     23.602583   15.702974   21.498935 C.3        1 MOL1         0.1018
     118    H56     24.547050   15.147276   21.439287 H          1 MOL1         0.0783
     119    C35     22.625837   15.257251   20.370773 C.3        1 MOL1         0.1043
     120    H57     21.820270   16.000099   20.325319 H          1 MOL1         0.0783
     121    O29     22.044388   13.956653   20.658938 O.3        1 MOL1        -0.3740
     122    C36     23.275493   15.201216   18.966950 C.3        1 MOL1         0.0138
     123    H58     23.548426   16.220339   18.660974 H          1 MOL1         0.0794
     124    H59     22.523787   14.840630   18.252385 H          1 MOL1         0.0794
     125    O30     24.428104   14.350009   18.928996 O.3        1 MOL1        -0.5486
     126    H60     25.161147   14.804992   19.391483 H          1 MOL1         0.3769
     127    C1      21.149889   16.908882   25.259478 C.2        1 MOL1         0.6173
     128    O1      22.133275   16.701579   25.943562 O.co2      1 MOL1        -0.6755
     129    O2      20.290228   16.063962   25.078911 O.co2      1 MOL1        -0.6755
     130    C2      21.135048   18.160481   24.452819 C.2        1 MOL1        -0.1504
     131    H1      21.956830   18.851045   24.626269 H          1 MOL1         0.0814
     132    C3      20.197747   18.433166   23.518635 C.2        1 MOL1        -0.1394
     133    H2      19.383470   17.735787   23.337454 H          1 MOL1         0.0817
     134    C4      20.197282   19.679934   22.661102 C.3        1 MOL1        -0.1849
     135    H3      21.222289   19.942926   22.372662 H          1 MOL1         0.0736
     136    H4      19.810892   20.516916   23.256122 H          1 MOL1         0.0736
     137    C5      19.324595   19.511312   21.398658 C.3        1 MOL1        -0.1866
     138    H5      18.348028   19.107131   21.695311 H          1 MOL1         0.0738
     139    H6      19.132540   20.491962   20.948378 H          1 MOL1         0.0738
     140    C6      19.977574   18.598673   20.341637 C.3        1 MOL1        -0.2879
     141    H7      20.305634   17.654020   20.791448 H          1 MOL1         0.0750
     142    H8      19.274824   18.373201   19.531479 H          1 MOL1         0.0750
     143    H9      20.847576   19.087677   19.893950 H          1 MOL1         0.0750
@<TRIPOS>BOND
    1     1     2    1
    2     1     3    1
    3     1     4    1
    4     4     5    1
    5     4     6    1
    6     6     7    1
    7     4     8    1
    8     8     9    1
    9     8    10    1
   10    10    11    1
   11     8    12    1
   12    12    13    1
   13    12    14    1
   14    14    15    1
   15     1    16    1
   16    14    16    1
   17    14    17    1
   18    17    18    1
   19    17    19    1
   20    17    20    1
   21    20    21    1
   22    22    23    1
   23    22    24    1
   24    22    25    1
   25    25    26    1
   26    25    27    1
   27    27    28    1
   28    25    29    1
   29    29    30    1
   30    29    31    1
   31    31    32    1
   32     3    33    1
   33    29    33    1
   34    33    34    1
   35    33    35    1
   36    35    36    1
   37    22    37    1
   38    35    37    1
   39    35    38    1
   40    38    39    1
   41    38    40    1
   42    38    41    1
   43    41    42    1
   44    43    44    1
   45    43    45    1
   46    43    46    1
   47    46    47    1
   48    46    48    1
   49    48    49    1
   50    46    50    1
   51    50    51    1
   52    50    52    1
   53    52    53    1
   54    24    54    1
   55    50    54    1
   56    54    55    1
   57    54    56    1
   58    56    57    1
   59    43    58    1
   60    56    58    1
   61    56    59    1
   62    59    60    1
   63    59    61    1
   64    59    62    1
   65    62    63    1
   66    64    65    1
   67    64    66    1
   68    64    67    1
   69    67    68    1
   70    67    69    1
   71    69    70    1
   72    67    71    1
   73    71    72    1
   74    71    73    1
   75    73    74    1
   76    45    75    1
   77    71    75    1
   78    75    76    1
   79    75    77    1
   80    77    78    1
   81    64    79    1
   82    77    79    1
   83    77    80    1
   84    80    81    1
   85    80    82    1
   86    80    83    1
   87    83    84    1
   88    85    86    1
   89    85    87    1
   90    85    88    1
   91    88    89    1
   92    88    90    1
   93    90    91    1
   94    88    92    1
   95    92    93    1
   96    92    94    1
   97    94    95    1
   98    66    96    1
   99    92    96    1
  100    96    97    1
  101    96    98    1
  102    98    99    1
  103    85   100    1
  104    98   100    1
  105    98   101    1
  106   101   102    1
  107   101   103    1
  108   101   104    1
  109   104   105    1
  110   106   107    1
  111    12   108    1
  112   106   108    1
  113   106   109    1
  114   109   110    1
  115   109   111    1
  116   111   112    1
  117   109   113    1
  118   113   114    1
  119   113   115    1
  120   115   116    1
  121    87   117    1
  122   113   117    1
  123   117   118    1
  124   117   119    1
  125   119   120    1
  126   106   121    1
  127   119   121    1
  128   119   122    1
  129   122   123    1
  130   122   124    1
  131   122   125    1
  132   125   126    1
  133   127   128    1
  134   127   129    2
  135   127   130    1
  136   130   131    1
  137   130   132    2
  138   132   133    1
  139   132   134    1
  140   134   135    1
  141   134   136    1
  142   134   137    1
  143   137   138    1
  144   137   139    1
  145   137   140    1
  146   140   141    1
  147   140   142    1
  148   140   143    1
@<TRIPOS>SUBSTRUCTURE
       1 MOL1            1 RESIDUE      1      MOL     
       2 MOL1          143 RESIDUE      1      MOL     
@<SCITEGIC>MOL_PROPERTY
feprocess Rank
SciTegic.value.IntegerValue
128

@<SCITEGIC>MOL_PROPERTY
Conf_Id
SciTegic.value.IntegerValue
520

@<SCITEGIC>MOL_PROPERTY
Probability
SciTegic.value.DoubleValue
0.00

@<SCITEGIC>MOL_PROPERTY
G
SciTegic.value.DoubleValue
502.542

@<SCITEGIC>MOL_PROPERTY
E
SciTegic.value.DoubleValue
318.334

@<SCITEGIC>MOL_PROPERTY
-TS
SciTegic.value.DoubleValue
184.207

@<SCITEGIC>MOL_PROPERTY
U+W
SciTegic.value.DoubleValue
192.246

@<SCITEGIC>MOL_PROPERTY
U
SciTegic.value.DoubleValue
267.918

@<SCITEGIC>MOL_PROPERTY
W
SciTegic.value.DoubleValue
-75.672

@<SCITEGIC>MOL_PROPERTY
W(PB)
SciTegic.value.DoubleValue
-81.667

@<SCITEGIC>MOL_PROPERTY
W(SA)
SciTegic.value.DoubleValue
5.995

@<SCITEGIC>MOL_PROPERTY
Valence
SciTegic.value.DoubleValue
153.979

@<SCITEGIC>MOL_PROPERTY
Coulomb
SciTegic.value.DoubleValue
138.846

@<SCITEGIC>MOL_PROPERTY
VdW
SciTegic.value.DoubleValue
-24.907

@<SCITEGIC>MOL_PROPERTY
VdW6
SciTegic.value.DoubleValue
-185.023

@<SCITEGIC>MOL_PROPERTY
VdW12
SciTegic.value.DoubleValue
160.115

@<SCITEGIC>MOL_PROPERTY
Bond
SciTegic.value.DoubleValue
5.053

@<SCITEGIC>MOL_PROPERTY
Angle
SciTegic.value.DoubleValue
14.736

@<SCITEGIC>MOL_PROPERTY
Pdih
SciTegic.value.DoubleValue
134.119

@<SCITEGIC>MOL_PROPERTY
Idih
SciTegic.value.DoubleValue
0.071

@<SCITEGIC>MOL_PROPERTY
Tether
SciTegic.value.DoubleValue
0.000

@<TRIPOS>MOLECULE
CD_guest-s19_fast_vm2_rndm.mol2 : feprocess host+ligand conformer 129
         143         148           2
SMALL
USER_CHARGES
 
@<TRIPOS>ATOM
       1    C1      16.074756   15.125083   21.690103 C.3        1 MOL1         0.2972
       2    H1      14.989639   14.962260   21.709890 H          1 MOL1         0.0751
       3    O1      16.393766   16.534797   21.662546 O.3        1 MOL1        -0.3740
       4    C2      16.720066   14.463432   22.933411 C.3        1 MOL1         0.1003
       5    H2      16.590159   13.379400   22.820148 H          1 MOL1         0.0783
       6    O2      16.060645   14.862778   24.144258 O.3        1 MOL1        -0.5519
       7    H3      16.371794   15.775458   24.384007 H          1 MOL1         0.3769
       8    C3      18.241050   14.750937   22.942389 C.3        1 MOL1         0.1053
       9    H4      18.395415   15.837139   22.972667 H          1 MOL1         0.0783
      10    O3      18.875120   14.149880   24.077161 O.3        1 MOL1        -0.5519
      11    H5      18.636226   14.748979   24.833556 H          1 MOL1         0.3769
      12    C4      18.878405   14.226706   21.636457 C.3        1 MOL1         0.1018
      13    H6      18.917466   13.130377   21.685731 H          1 MOL1         0.0783
      14    C5      18.099127   14.688705   20.370095 C.3        1 MOL1         0.1043
      15    H7      18.305234   15.758266   20.240970 H          1 MOL1         0.0783
      16    O4      16.665944   14.501068   20.529899 O.3        1 MOL1        -0.3740
      17    C6      18.535514   13.967929   19.071697 C.3        1 MOL1         0.0138
      18    H8      19.533403   14.327492   18.788103 H          1 MOL1         0.0794
      19    H9      17.847318   14.251023   18.263953 H          1 MOL1         0.0794
      20    O5      18.557221   12.543872   19.228916 O.3        1 MOL1        -0.5486
      21    H10     18.772538   12.150913   18.355058 H          1 MOL1         0.3769
      22    C7      14.965371   20.212931   20.294392 C.3        1 MOL1         0.2972
      23    H11     14.398604   21.026318   19.823386 H          1 MOL1         0.0751
      24    O6      16.261123   20.667363   20.744288 O.3        1 MOL1        -0.3740
      25    C8      14.174017   19.590776   21.476034 C.3        1 MOL1         0.1003
      26    H12     13.258977   19.152708   21.057311 H          1 MOL1         0.0783
      27    O7      13.801816   20.590352   22.436517 O.3        1 MOL1        -0.5519
      28    H13     14.629989   20.848351   22.912275 H          1 MOL1         0.3769
      29    C9      14.997023   18.441638   22.116173 C.3        1 MOL1         0.1053
      30    H14     15.909549   18.874637   22.548638 H          1 MOL1         0.0783
      31    O8      14.243889   17.791367   23.144968 O.3        1 MOL1        -0.5519
      32    H15     14.911743   17.567709   23.845729 H          1 MOL1         0.3769
      33    C10     15.413425   17.397776   21.044140 C.3        1 MOL1         0.1018
      34    H16     14.513782   16.843519   20.746567 H          1 MOL1         0.0783
      35    C11     16.042364   18.070011   19.784879 C.3        1 MOL1         0.1043
      36    H17     17.024280   18.473398   20.065608 H          1 MOL1         0.0783
      37    O9      15.187687   19.153951   19.340866 O.3        1 MOL1        -0.3740
      38    C12     16.263819   17.136900   18.565360 C.3        1 MOL1         0.0138
      39    H18     17.269109   16.706462   18.625903 H          1 MOL1         0.0794
      40    H19     16.245672   17.748871   17.653576 H          1 MOL1         0.0794
      41    O10     15.292116   16.089891   18.464895 O.3        1 MOL1        -0.5486
      42    H20     15.552610   15.396741   19.116003 H          1 MOL1         0.3769
      43    C13     18.487548   23.991826   21.773878 C.3        1 MOL1         0.2972
      44    H21     18.872550   24.982977   22.046706 H          1 MOL1         0.0751
      45    O11     19.551840   23.068388   21.471276 O.3        1 MOL1        -0.3740
      46    C14     17.635782   23.410379   22.928270 C.3        1 MOL1         0.1003
      47    H22     16.772127   24.074693   23.062715 H          1 MOL1         0.0783
      48    O12     18.375233   23.353256   24.157375 O.3        1 MOL1        -0.5519
      49    H23     19.300615   23.635181   23.955908 H          1 MOL1         0.3769
      50    C15     17.105295   22.008723   22.555071 C.3        1 MOL1         0.1053
      51    H24     17.963464   21.329038   22.465319 H          1 MOL1         0.0783
      52    O13     16.239461   21.558216   23.599975 O.3        1 MOL1        -0.5519
      53    H25     16.735853   21.746954   24.428331 H          1 MOL1         0.3769
      54    C16     16.358625   22.034301   21.195459 C.3        1 MOL1         0.1018
      55    H26     15.371189   22.490376   21.345963 H          1 MOL1         0.0783
      56    C17     17.139927   22.814703   20.097231 C.3        1 MOL1         0.1043
      57    H27     17.992506   22.195751   19.789564 H          1 MOL1         0.0783
      58    O14     17.637326   24.078422   20.611253 O.3        1 MOL1        -0.3740
      59    C18     16.302338   23.098333   18.827313 C.3        1 MOL1         0.0138
      60    H28     16.141936   22.149910   18.296955 H          1 MOL1         0.0794
      61    H29     16.884744   23.749538   18.161758 H          1 MOL1         0.0794
      62    O15     15.039591   23.701796   19.135505 O.3        1 MOL1        -0.5486
      63    H30     14.601052   23.926153   18.285757 H          1 MOL1         0.3769
      64    C19     23.705863   22.867052   21.471194 C.3        1 MOL1         0.2972
      65    H31     24.777045   23.082021   21.367906 H          1 MOL1         0.0751
      66    O16     23.472885   21.494221   21.838284 O.3        1 MOL1        -0.3740
      67    C20     23.100942   23.749958   22.589255 C.3        1 MOL1         0.1003
      68    H32     23.260972   24.798557   22.306504 H          1 MOL1         0.0783
      69    O17     23.759230   23.488485   23.839042 O.3        1 MOL1        -0.5519
      70    H33     23.975001   22.524368   23.850657 H          1 MOL1         0.3769
      71    C21     21.576494   23.516585   22.721844 C.3        1 MOL1         0.1053
      72    H34     21.414682   22.499270   23.098796 H          1 MOL1         0.0783
      73    O18     21.039824   24.467106   23.646358 O.3        1 MOL1        -0.5519
      74    H35     21.674138   24.472096   24.398727 H          1 MOL1         0.3769
      75    C22     20.869598   23.632377   21.347478 C.3        1 MOL1         0.1018
      76    H36     20.835949   24.687454   21.046461 H          1 MOL1         0.0783
      77    C23     21.593491   22.810428   20.247771 C.3        1 MOL1         0.1043
      78    H37     21.473053   21.745233   20.485959 H          1 MOL1         0.0783
      79    O19     23.005108   23.141023   20.238414 O.3        1 MOL1        -0.3740
      80    C24     21.015277   23.022272   18.825053 C.3        1 MOL1         0.0138
      81    H38     20.104459   22.417204   18.726973 H          1 MOL1         0.0794
      82    H39     21.736801   22.638792   18.091712 H          1 MOL1         0.0794
      83    O20     20.710576   24.393239   18.542891 O.3        1 MOL1        -0.5486
      84    H40     19.901230   24.622356   19.050263 H          1 MOL1         0.3769
      85    C25     25.112179   17.684426   21.471533 C.3        1 MOL1         0.2972
      86    H41     25.786030   16.835296   21.300162 H          1 MOL1         0.0751
      87    O21     23.776175   17.245630   21.791097 O.3        1 MOL1        -0.3740
      88    C26     25.631319   18.525593   22.662442 C.3        1 MOL1         0.1003
      89    H42     26.643888   18.869069   22.413921 H          1 MOL1         0.0783
      90    O22     25.676483   17.721729   23.852312 O.3        1 MOL1        -0.5519
      91    H43     24.933734   17.072852   23.784360 H          1 MOL1         0.3769
      92    C27     24.741570   19.770061   22.884055 C.3        1 MOL1         0.1053
      93    H44     23.759788   19.418722   23.224066 H          1 MOL1         0.0783
      94    O23     25.328920   20.613562   23.881047 O.3        1 MOL1        -0.5519
      95    H45     25.563490   20.010394   24.620316 H          1 MOL1         0.3769
      96    C28     24.540707   20.566115   21.571535 C.3        1 MOL1         0.1018
      97    H46     25.482737   21.075113   21.329053 H          1 MOL1         0.0783
      98    C29     24.120456   19.642413   20.393060 C.3        1 MOL1         0.1043
      99    H47     23.114200   19.260204   20.608822 H          1 MOL1         0.0783
     100    O24     25.047223   18.530488   20.303793 O.3        1 MOL1        -0.3740
     101    C30     24.054746   20.325480   19.002920 C.3        1 MOL1         0.0138
     102    H48     23.055369   20.758317   18.874184 H          1 MOL1         0.0794
     103    H49     24.167397   19.554778   18.228778 H          1 MOL1         0.0794
     104    O25     25.044672   21.343509   18.824514 O.3        1 MOL1        -0.5486
     105    H50     24.649366   22.179109   19.162038 H          1 MOL1         0.3769
     106    C31     21.249445   13.962339   21.105321 C.3        1 MOL1         0.2972
     107    H51     20.871856   12.980749   20.790897 H          1 MOL1         0.0751
     108    O26     20.190711   14.815398   21.575494 O.3        1 MOL1        -0.3740
     109    C32     22.276839   13.812178   22.257923 C.3        1 MOL1         0.1003
     110    H52     23.084689   13.163920   21.894470 H          1 MOL1         0.0783
     111    O27     21.668035   13.206622   23.410354 O.3        1 MOL1        -0.5519
     112    H53     20.800912   13.662830   23.560600 H          1 MOL1         0.3769
     113    C33     22.896799   15.182202   22.632637 C.3        1 MOL1         0.1053
     114    H54     22.110662   15.806444   23.080494 H          1 MOL1         0.0783
     115    O28     23.958262   14.986311   23.573918 O.3        1 MOL1        -0.5519
     116    H55     23.591142   14.374498   24.249997 H          1 MOL1         0.3769
     117    C34     23.436048   15.908616   21.376061 C.3        1 MOL1         0.1018
     118    H56     24.311432   15.356569   21.009272 H          1 MOL1         0.0783
     119    C35     22.361582   15.971538   20.254705 C.3        1 MOL1         0.1043
     120    H57     21.526320   16.590680   20.608043 H          1 MOL1         0.0783
     121    O29     21.894181   14.625908   19.997243 O.3        1 MOL1        -0.3740
     122    C36     22.835888   16.572404   18.907254 C.3        1 MOL1         0.0138
     123    H58     22.712475   17.660996   18.947403 H          1 MOL1         0.0794
     124    H59     22.171277   16.209208   18.112063 H          1 MOL1         0.0794
     125    O30     24.195244   16.252249   18.592149 O.3        1 MOL1        -0.5486
     126    H60     24.754528   16.919741   19.052442 H          1 MOL1         0.3769
     127    C1      17.711937   17.487091   24.994264 C.2        1 MOL1         0.6173
     128    O1      16.509046   17.564920   24.832225 O.co2      1 MOL1        -0.6755
     129    O2      18.234174   16.520461   25.518517 O.co2      1 MOL1        -0.6755
     130    C2      18.560416   18.554828   24.400659 C.2        1 MOL1        -0.1504
     131    H1      18.027114   19.379770   23.936890 H          1 MOL1         0.0814
     132    C3      19.912455   18.531873   24.413704 C.2        1 MOL1        -0.1394
     133    H2      20.448649   17.702446   24.874009 H          1 MOL1         0.0817
     134    C4      20.783823   19.620592   23.822805 C.3        1 MOL1        -0.1849
     135    H3      20.168555   20.395177   23.345815 H          1 MOL1         0.0736
     136    H4      21.407362   19.189533   23.028909 H          1 MOL1         0.0736
     137    C5      21.693138   20.264716   24.892872 C.3        1 MOL1        -0.1866
     138    H5      22.283560   19.485906   25.394627 H          1 MOL1         0.0738
     139    H6      22.412329   20.934050   24.406486 H          1 MOL1         0.0738
     140    C6      20.895541   21.068952   25.939816 C.3        1 MOL1        -0.2879
     141    H7      20.200455   20.421488   26.489685 H          1 MOL1         0.0750
     142    H8      21.572739   21.534768   26.666856 H          1 MOL1         0.0750
     143    H9      20.312832   21.865291   25.460899 H          1 MOL1         0.0750
@<TRIPOS>BOND
    1     1     2    1
    2     1     3    1
    3     1     4    1
    4     4     5    1
    5     4     6    1
    6     6     7    1
    7     4     8    1
    8     8     9    1
    9     8    10    1
   10    10    11    1
   11     8    12    1
   12    12    13    1
   13    12    14    1
   14    14    15    1
   15     1    16    1
   16    14    16    1
   17    14    17    1
   18    17    18    1
   19    17    19    1
   20    17    20    1
   21    20    21    1
   22    22    23    1
   23    22    24    1
   24    22    25    1
   25    25    26    1
   26    25    27    1
   27    27    28    1
   28    25    29    1
   29    29    30    1
   30    29    31    1
   31    31    32    1
   32     3    33    1
   33    29    33    1
   34    33    34    1
   35    33    35    1
   36    35    36    1
   37    22    37    1
   38    35    37    1
   39    35    38    1
   40    38    39    1
   41    38    40    1
   42    38    41    1
   43    41    42    1
   44    43    44    1
   45    43    45    1
   46    43    46    1
   47    46    47    1
   48    46    48    1
   49    48    49    1
   50    46    50    1
   51    50    51    1
   52    50    52    1
   53    52    53    1
   54    24    54    1
   55    50    54    1
   56    54    55    1
   57    54    56    1
   58    56    57    1
   59    43    58    1
   60    56    58    1
   61    56    59    1
   62    59    60    1
   63    59    61    1
   64    59    62    1
   65    62    63    1
   66    64    65    1
   67    64    66    1
   68    64    67    1
   69    67    68    1
   70    67    69    1
   71    69    70    1
   72    67    71    1
   73    71    72    1
   74    71    73    1
   75    73    74    1
   76    45    75    1
   77    71    75    1
   78    75    76    1
   79    75    77    1
   80    77    78    1
   81    64    79    1
   82    77    79    1
   83    77    80    1
   84    80    81    1
   85    80    82    1
   86    80    83    1
   87    83    84    1
   88    85    86    1
   89    85    87    1
   90    85    88    1
   91    88    89    1
   92    88    90    1
   93    90    91    1
   94    88    92    1
   95    92    93    1
   96    92    94    1
   97    94    95    1
   98    66    96    1
   99    92    96    1
  100    96    97    1
  101    96    98    1
  102    98    99    1
  103    85   100    1
  104    98   100    1
  105    98   101    1
  106   101   102    1
  107   101   103    1
  108   101   104    1
  109   104   105    1
  110   106   107    1
  111    12   108    1
  112   106   108    1
  113   106   109    1
  114   109   110    1
  115   109   111    1
  116   111   112    1
  117   109   113    1
  118   113   114    1
  119   113   115    1
  120   115   116    1
  121    87   117    1
  122   113   117    1
  123   117   118    1
  124   117   119    1
  125   119   120    1
  126   106   121    1
  127   119   121    1
  128   119   122    1
  129   122   123    1
  130   122   124    1
  131   122   125    1
  132   125   126    1
  133   127   128    1
  134   127   129    2
  135   127   130    1
  136   130   131    1
  137   130   132    2
  138   132   133    1
  139   132   134    1
  140   134   135    1
  141   134   136    1
  142   134   137    1
  143   137   138    1
  144   137   139    1
  145   137   140    1
  146   140   141    1
  147   140   142    1
  148   140   143    1
@<TRIPOS>SUBSTRUCTURE
       1 MOL1            1 RESIDUE      1      MOL     
       2 MOL1          143 RESIDUE      1      MOL     
@<SCITEGIC>MOL_PROPERTY
feprocess Rank
SciTegic.value.IntegerValue
129

@<SCITEGIC>MOL_PROPERTY
Conf_Id
SciTegic.value.IntegerValue
304

@<SCITEGIC>MOL_PROPERTY
Probability
SciTegic.value.DoubleValue
0.00

@<SCITEGIC>MOL_PROPERTY
G
SciTegic.value.DoubleValue
502.566

@<SCITEGIC>MOL_PROPERTY
E
SciTegic.value.DoubleValue
320.275

@<SCITEGIC>MOL_PROPERTY
-TS
SciTegic.value.DoubleValue
182.291

@<SCITEGIC>MOL_PROPERTY
U+W
SciTegic.value.DoubleValue
194.187

@<SCITEGIC>MOL_PROPERTY
U
SciTegic.value.DoubleValue
271.305

@<SCITEGIC>MOL_PROPERTY
W
SciTegic.value.DoubleValue
-77.118

@<SCITEGIC>MOL_PROPERTY
W(PB)
SciTegic.value.DoubleValue
-83.238

@<SCITEGIC>MOL_PROPERTY
W(SA)
SciTegic.value.DoubleValue
6.119

@<SCITEGIC>MOL_PROPERTY
Valence
SciTegic.value.DoubleValue
151.443

@<SCITEGIC>MOL_PROPERTY
Coulomb
SciTegic.value.DoubleValue
139.126

@<SCITEGIC>MOL_PROPERTY
VdW
SciTegic.value.DoubleValue
-19.263

@<SCITEGIC>MOL_PROPERTY
VdW6
SciTegic.value.DoubleValue
-175.174

@<SCITEGIC>MOL_PROPERTY
VdW12
SciTegic.value.DoubleValue
155.911

@<SCITEGIC>MOL_PROPERTY
Bond
SciTegic.value.DoubleValue
5.006

@<SCITEGIC>MOL_PROPERTY
Angle
SciTegic.value.DoubleValue
14.391

@<SCITEGIC>MOL_PROPERTY
Pdih
SciTegic.value.DoubleValue
132.018

@<SCITEGIC>MOL_PROPERTY
Idih
SciTegic.value.DoubleValue
0.027

@<SCITEGIC>MOL_PROPERTY
Tether
SciTegic.value.DoubleValue
0.000

@<TRIPOS>MOLECULE
CD_guest-s19_fast_vm2_rndm.mol2 : feprocess host+ligand conformer 130
         143         148           2
SMALL
USER_CHARGES
 
@<TRIPOS>ATOM
       1    C1      16.203839   15.237388   21.212517 C.3        1 MOL1         0.2972
       2    H1      15.161537   14.998210   20.965622 H          1 MOL1         0.0751
       3    O1      16.380853   16.650625   21.415950 O.3        1 MOL1        -0.3740
       4    C2      16.605113   14.523892   22.529653 C.3        1 MOL1         0.1003
       5    H2      16.449844   13.446935   22.384562 H          1 MOL1         0.0783
       6    O2      15.778641   14.982268   23.610903 O.3        1 MOL1        -0.5519
       7    H3      15.558062   15.923541   23.410907 H          1 MOL1         0.3769
       8    C3      18.100279   14.751993   22.859674 C.3        1 MOL1         0.1053
       9    H4      18.242837   15.816272   23.091267 H          1 MOL1         0.0783
      10    O3      18.471595   13.953567   23.988716 O.3        1 MOL1        -0.5519
      11    H5      17.760503   14.102890   24.650668 H          1 MOL1         0.3769
      12    C4      18.986592   14.394099   21.643992 C.3        1 MOL1         0.1018
      13    H6      18.938162   13.308946   21.483681 H          1 MOL1         0.0783
      14    C5      18.498282   15.120482   20.361177 C.3        1 MOL1         0.1043
      15    H7      18.619499   16.200739   20.515298 H          1 MOL1         0.0783
      16    O4      17.094298   14.815302   20.155193 O.3        1 MOL1        -0.3740
      17    C6      19.269052   14.751237   19.066990 C.3        1 MOL1         0.0138
      18    H8      20.140673   15.410924   18.978872 H          1 MOL1         0.0794
      19    H9      18.624407   14.962304   18.203436 H          1 MOL1         0.0794
      20    O5      19.695985   13.384946   19.033355 O.3        1 MOL1        -0.5486
      21    H10     20.509653   13.326387   19.586612 H          1 MOL1         0.3769
      22    C7      14.972344   20.395287   20.286142 C.3        1 MOL1         0.2972
      23    H11     14.436296   21.244948   19.843869 H          1 MOL1         0.0751
      24    O6      16.167377   20.817491   20.972684 O.3        1 MOL1        -0.3740
      25    C8      14.074639   19.625303   21.289193 C.3        1 MOL1         0.1003
      26    H12     13.209001   19.248165   20.729324 H          1 MOL1         0.0783
      27    O7      13.612469   20.482060   22.345246 O.3        1 MOL1        -0.5519
      28    H13     14.411435   20.895515   22.761255 H          1 MOL1         0.3769
      29    C9      14.833147   18.407545   21.872468 C.3        1 MOL1         0.1053
      30    H14     15.655647   18.786364   22.492537 H          1 MOL1         0.0783
      31    O8      13.942176   17.627774   22.677147 O.3        1 MOL1        -0.5519
      32    H15     13.466829   18.278568   23.239529 H          1 MOL1         0.3769
      33    C10     15.443619   17.523644   20.754851 C.3        1 MOL1         0.1018
      34    H16     14.628741   16.967342   20.273601 H          1 MOL1         0.0783
      35    C11     16.204296   18.365427   19.686919 C.3        1 MOL1         0.1043
      36    H17     17.111348   18.773634   20.148469 H          1 MOL1         0.0783
      37    O9      15.361673   19.462275   19.254850 O.3        1 MOL1        -0.3740
      38    C12     16.662580   17.585616   18.427867 C.3        1 MOL1         0.0138
      39    H18     17.667589   17.188271   18.612088 H          1 MOL1         0.0794
      40    H19     16.753153   18.293772   17.593404 H          1 MOL1         0.0794
      41    O10     15.781576   16.516065   18.067899 O.3        1 MOL1        -0.5486
      42    H20     16.013442   15.753661   18.647328 H          1 MOL1         0.3769
      43    C13     18.430883   24.072845   22.051000 C.3        1 MOL1         0.2972
      44    H21     18.844465   25.054782   22.315012 H          1 MOL1         0.0751
      45    O11     19.460213   23.068262   21.960811 O.3        1 MOL1        -0.3740
      46    C14     17.414071   23.627935   23.127438 C.3        1 MOL1         0.1003
      47    H22     16.597149   24.361161   23.138342 H          1 MOL1         0.0783
      48    O12     18.038615   23.590880   24.420588 O.3        1 MOL1        -0.5519
      49    H23     19.004914   23.449423   24.267179 H          1 MOL1         0.3769
      50    C15     16.816183   22.247936   22.773109 C.3        1 MOL1         0.1053
      51    H24     17.621074   21.507498   22.852442 H          1 MOL1         0.0783
      52    O13     15.773574   21.930446   23.700864 O.3        1 MOL1        -0.5519
      53    H25     16.161474   22.113270   24.585552 H          1 MOL1         0.3769
      54    C16     16.266347   22.210730   21.324742 C.3        1 MOL1         0.1018
      55    H26     15.290085   22.713244   21.306314 H          1 MOL1         0.0783
      56    C17     17.230654   22.862608   20.292234 C.3        1 MOL1         0.1043
      57    H27     18.067716   22.168852   20.146330 H          1 MOL1         0.0783
      58    O14     17.746471   24.127927   20.782474 O.3        1 MOL1        -0.3740
      59    C18     16.587944   23.100485   18.904921 C.3        1 MOL1         0.0138
      60    H28     16.436871   22.127233   18.418605 H          1 MOL1         0.0794
      61    H29     17.293597   23.668695   18.283945 H          1 MOL1         0.0794
      62    O15     15.338198   23.794642   19.001716 O.3        1 MOL1        -0.5486
      63    H30     15.029875   23.982416   18.088343 H          1 MOL1         0.3769
      64    C19     23.614452   22.723195   21.590359 C.3        1 MOL1         0.2972
      65    H31     24.677503   22.948171   21.436141 H          1 MOL1         0.0751
      66    O16     23.406352   21.308483   21.765328 O.3        1 MOL1        -0.3740
      67    C20     23.098567   23.487213   22.840933 C.3        1 MOL1         0.1003
      68    H32     23.236133   24.556678   22.635890 H          1 MOL1         0.0783
      69    O17     23.849584   23.150344   24.015863 O.3        1 MOL1        -0.5519
      70    H33     23.678249   22.186926   24.213195 H          1 MOL1         0.3769
      71    C21     21.587285   23.245783   23.065099 C.3        1 MOL1         0.1053
      72    H34     21.439000   22.187597   23.318188 H          1 MOL1         0.0783
      73    O18     21.117683   24.071582   24.136189 O.3        1 MOL1        -0.5519
      74    H35     21.771454   23.941916   24.859283 H          1 MOL1         0.3769
      75    C22     20.798704   23.561823   21.772488 C.3        1 MOL1         0.1018
      76    H36     20.819995   24.646483   21.602848 H          1 MOL1         0.0783
      77    C23     21.407004   22.843420   20.539237 C.3        1 MOL1         0.1043
      78    H37     21.271348   21.765082   20.690027 H          1 MOL1         0.0783
      79    O19     22.825459   23.146198   20.453805 O.3        1 MOL1        -0.3740
      80    C24     20.742524   23.206036   19.184381 C.3        1 MOL1         0.0138
      81    H38     19.911490   22.512775   19.006827 H          1 MOL1         0.0794
      82    H39     21.470284   23.036653   18.379634 H          1 MOL1         0.0794
      83    O20     20.261467   24.554272   19.130947 O.3        1 MOL1        -0.5486
      84    H40     19.435391   24.589127   19.667690 H          1 MOL1         0.3769
      85    C25     24.881035   17.552976   20.710666 C.3        1 MOL1         0.2972
      86    H41     25.440135   16.716775   20.271473 H          1 MOL1         0.0751
      87    O21     23.735751   17.096837   21.449560 O.3        1 MOL1        -0.3740
      88    C26     25.776680   18.359333   21.681846 C.3        1 MOL1         0.1003
      89    H42     26.656150   18.690107   21.114435 H          1 MOL1         0.0783
      90    O22     26.201239   17.527551   22.775410 O.3        1 MOL1        -0.5519
      91    H43     25.393049   17.077491   23.127755 H          1 MOL1         0.3769
      92    C27     25.053478   19.622356   22.217880 C.3        1 MOL1         0.1053
      93    H44     24.286654   19.296607   22.933350 H          1 MOL1         0.0783
      94    O23     26.016726   20.453835   22.873953 O.3        1 MOL1        -0.5519
      95    H45     26.378665   19.909455   23.605315 H          1 MOL1         0.3769
      96    C28     24.343443   20.432762   21.099629 C.3        1 MOL1         0.1018
      97    H46     25.106121   20.993116   20.543601 H          1 MOL1         0.0783
      98    C29     23.555747   19.518776   20.115612 C.3        1 MOL1         0.1043
      99    H47     22.691616   19.102100   20.649605 H          1 MOL1         0.0783
     100    O24     24.419970   18.444464   19.677138 O.3        1 MOL1        -0.3740
     101    C30     23.009989   20.214620   18.841754 C.3        1 MOL1         0.0138
     102    H48     21.995142   20.573532   19.043735 H          1 MOL1         0.0794
     103    H49     22.917697   19.461308   18.047981 H          1 MOL1         0.0794
     104    O25     23.829851   21.297723   18.388447 O.3        1 MOL1        -0.5486
     105    H50     23.674365   22.051622   19.004389 H          1 MOL1         0.3769
     106    C31     21.333087   13.809166   21.987763 C.3        1 MOL1         0.2972
     107    H51     20.891702   12.812193   22.113209 H          1 MOL1         0.0751
     108    O26     20.322206   14.836118   21.954354 O.3        1 MOL1        -0.3740
     109    C32     22.293036   14.101822   23.165881 C.3        1 MOL1         0.1003
     110    H52     23.076633   13.333190   23.153448 H          1 MOL1         0.0783
     111    O27     21.581773   14.037543   24.412405 O.3        1 MOL1        -0.5519
     112    H53     20.641887   14.276016   24.217716 H          1 MOL1         0.3769
     113    C33     22.974117   15.479872   23.001974 C.3        1 MOL1         0.1053
     114    H54     22.208957   16.249404   23.148632 H          1 MOL1         0.0783
     115    O28     24.003127   15.633662   23.986275 O.3        1 MOL1        -0.5519
     116    H55     23.574120   15.416463   24.842819 H          1 MOL1         0.3769
     117    C34     23.579530   15.673480   21.591310 C.3        1 MOL1         0.1018
     118    H56     24.542560   15.147345   21.551513 H          1 MOL1         0.0783
     119    C35     22.644945   15.183752   20.446951 C.3        1 MOL1         0.1043
     120    H57     21.829954   15.912583   20.353302 H          1 MOL1         0.0783
     121    O29     22.086685   13.882217   20.761654 O.3        1 MOL1        -0.3740
     122    C36     23.334183   15.085995   19.064367 C.3        1 MOL1         0.0138
     123    H58     23.506603   16.101506   18.684258 H          1 MOL1         0.0794
     124    H59     22.646423   14.591963   18.364899 H          1 MOL1         0.0794
     125    O30     24.574741   14.371808   19.128258 O.3        1 MOL1        -0.5486
     126    H60     24.911620   14.276622   18.210730 H          1 MOL1         0.3769
     127    C1      22.830520   19.529325   25.374155 C.2        1 MOL1         0.6173
     128    O1      23.274281   19.092040   26.418550 O.co2      1 MOL1        -0.6755
     129    O2      23.126252   20.623477   24.930675 O.co2      1 MOL1        -0.6755
     130    C2      21.869018   18.673665   24.627733 C.2        1 MOL1        -0.1504
     131    H1      21.619299   17.723999   25.094238 H          1 MOL1         0.0814
     132    C3      21.308280   19.025351   23.448706 C.2        1 MOL1        -0.1394
     133    H2      21.550915   19.974781   22.979242 H          1 MOL1         0.0817
     134    C4      20.300814   18.176634   22.706491 C.3        1 MOL1        -0.1849
     135    H3      20.189253   17.200887   23.194104 H          1 MOL1         0.0736
     136    H4      20.664990   17.979674   21.690201 H          1 MOL1         0.0736
     137    C5      18.923031   18.861141   22.637264 C.3        1 MOL1        -0.1866
     138    H5      19.022785   19.849376   22.169153 H          1 MOL1         0.0738
     139    H6      18.268956   18.268818   21.991582 H          1 MOL1         0.0738
     140    C6      18.268432   18.992362   24.029267 C.3        1 MOL1        -0.2879
     141    H7      18.870733   19.630199   24.688976 H          1 MOL1         0.0750
     142    H8      17.270105   19.438123   23.953299 H          1 MOL1         0.0750
     143    H9      18.163012   18.009645   24.506235 H          1 MOL1         0.0750
@<TRIPOS>BOND
    1     1     2    1
    2     1     3    1
    3     1     4    1
    4     4     5    1
    5     4     6    1
    6     6     7    1
    7     4     8    1
    8     8     9    1
    9     8    10    1
   10    10    11    1
   11     8    12    1
   12    12    13    1
   13    12    14    1
   14    14    15    1
   15     1    16    1
   16    14    16    1
   17    14    17    1
   18    17    18    1
   19    17    19    1
   20    17    20    1
   21    20    21    1
   22    22    23    1
   23    22    24    1
   24    22    25    1
   25    25    26    1
   26    25    27    1
   27    27    28    1
   28    25    29    1
   29    29    30    1
   30    29    31    1
   31    31    32    1
   32     3    33    1
   33    29    33    1
   34    33    34    1
   35    33    35    1
   36    35    36    1
   37    22    37    1
   38    35    37    1
   39    35    38    1
   40    38    39    1
   41    38    40    1
   42    38    41    1
   43    41    42    1
   44    43    44    1
   45    43    45    1
   46    43    46    1
   47    46    47    1
   48    46    48    1
   49    48    49    1
   50    46    50    1
   51    50    51    1
   52    50    52    1
   53    52    53    1
   54    24    54    1
   55    50    54    1
   56    54    55    1
   57    54    56    1
   58    56    57    1
   59    43    58    1
   60    56    58    1
   61    56    59    1
   62    59    60    1
   63    59    61    1
   64    59    62    1
   65    62    63    1
   66    64    65    1
   67    64    66    1
   68    64    67    1
   69    67    68    1
   70    67    69    1
   71    69    70    1
   72    67    71    1
   73    71    72    1
   74    71    73    1
   75    73    74    1
   76    45    75    1
   77    71    75    1
   78    75    76    1
   79    75    77    1
   80    77    78    1
   81    64    79    1
   82    77    79    1
   83    77    80    1
   84    80    81    1
   85    80    82    1
   86    80    83    1
   87    83    84    1
   88    85    86    1
   89    85    87    1
   90    85    88    1
   91    88    89    1
   92    88    90    1
   93    90    91    1
   94    88    92    1
   95    92    93    1
   96    92    94    1
   97    94    95    1
   98    66    96    1
   99    92    96    1
  100    96    97    1
  101    96    98    1
  102    98    99    1
  103    85   100    1
  104    98   100    1
  105    98   101    1
  106   101   102    1
  107   101   103    1
  108   101   104    1
  109   104   105    1
  110   106   107    1
  111    12   108    1
  112   106   108    1
  113   106   109    1
  114   109   110    1
  115   109   111    1
  116   111   112    1
  117   109   113    1
  118   113   114    1
  119   113   115    1
  120   115   116    1
  121    87   117    1
  122   113   117    1
  123   117   118    1
  124   117   119    1
  125   119   120    1
  126   106   121    1
  127   119   121    1
  128   119   122    1
  129   122   123    1
  130   122   124    1
  131   122   125    1
  132   125   126    1
  133   127   128    1
  134   127   129    2
  135   127   130    1
  136   130   131    1
  137   130   132    2
  138   132   133    1
  139   132   134    1
  140   134   135    1
  141   134   136    1
  142   134   137    1
  143   137   138    1
  144   137   139    1
  145   137   140    1
  146   140   141    1
  147   140   142    1
  148   140   143    1
@<TRIPOS>SUBSTRUCTURE
       1 MOL1            1 RESIDUE      1      MOL     
       2 MOL1          143 RESIDUE      1      MOL     
@<SCITEGIC>MOL_PROPERTY
feprocess Rank
SciTegic.value.IntegerValue
130

@<SCITEGIC>MOL_PROPERTY
Conf_Id
SciTegic.value.IntegerValue
828

@<SCITEGIC>MOL_PROPERTY
Probability
SciTegic.value.DoubleValue
0.00

@<SCITEGIC>MOL_PROPERTY
G
SciTegic.value.DoubleValue
502.571

@<SCITEGIC>MOL_PROPERTY
E
SciTegic.value.DoubleValue
321.146

@<SCITEGIC>MOL_PROPERTY
-TS
SciTegic.value.DoubleValue
181.426

@<SCITEGIC>MOL_PROPERTY
U+W
SciTegic.value.DoubleValue
195.057

@<SCITEGIC>MOL_PROPERTY
U
SciTegic.value.DoubleValue
276.963

@<SCITEGIC>MOL_PROPERTY
W
SciTegic.value.DoubleValue
-81.906

@<SCITEGIC>MOL_PROPERTY
W(PB)
SciTegic.value.DoubleValue
-87.898

@<SCITEGIC>MOL_PROPERTY
W(SA)
SciTegic.value.DoubleValue
5.992

@<SCITEGIC>MOL_PROPERTY
Valence
SciTegic.value.DoubleValue
150.423

@<SCITEGIC>MOL_PROPERTY
Coulomb
SciTegic.value.DoubleValue
152.072

@<SCITEGIC>MOL_PROPERTY
VdW
SciTegic.value.DoubleValue
-25.531

@<SCITEGIC>MOL_PROPERTY
VdW6
SciTegic.value.DoubleValue
-177.973

@<SCITEGIC>MOL_PROPERTY
VdW12
SciTegic.value.DoubleValue
152.442

@<SCITEGIC>MOL_PROPERTY
Bond
SciTegic.value.DoubleValue
4.724

@<SCITEGIC>MOL_PROPERTY
Angle
SciTegic.value.DoubleValue
13.520

@<SCITEGIC>MOL_PROPERTY
Pdih
SciTegic.value.DoubleValue
132.177

@<SCITEGIC>MOL_PROPERTY
Idih
SciTegic.value.DoubleValue
0.002

@<SCITEGIC>MOL_PROPERTY
Tether
SciTegic.value.DoubleValue
0.000

@<TRIPOS>MOLECULE
CD_guest-s19_fast_vm2_rndm.mol2 : feprocess host+ligand conformer 131
         143         148           2
SMALL
USER_CHARGES
 
@<TRIPOS>ATOM
       1    C1      16.519577   15.556659   19.951592 C.3        1 MOL1         0.2972
       2    H1      15.587498   15.500391   19.374716 H          1 MOL1         0.0751
       3    O1      16.662890   16.836133   20.600486 O.3        1 MOL1        -0.3740
       4    C2      16.594139   14.427382   21.016147 C.3        1 MOL1         0.1003
       5    H2      16.583725   13.472876   20.474011 H          1 MOL1         0.0783
       6    O2      15.475167   14.459105   21.914368 O.3        1 MOL1        -0.5519
       7    H3      15.505018   15.330073   22.385690 H          1 MOL1         0.3769
       8    C3      17.926291   14.512760   21.800690 C.3        1 MOL1         0.1053
       9    H4      17.922873   15.446671   22.377369 H          1 MOL1         0.0783
      10    O3      18.037819   13.394794   22.687882 O.3        1 MOL1        -0.5519
      11    H5      17.157834   13.318859   23.118942 H          1 MOL1         0.3769
      12    C4      19.132457   14.538350   20.828580 C.3        1 MOL1         0.1018
      13    H6      19.226254   13.542143   20.376443 H          1 MOL1         0.0783
      14    C5      18.956559   15.582152   19.689964 C.3        1 MOL1         0.1043
      15    H7      19.007881   16.587177   20.124533 H          1 MOL1         0.0783
      16    O4      17.657153   15.391318   19.074176 O.3        1 MOL1        -0.3740
      17    C6      20.041469   15.522794   18.582707 C.3        1 MOL1         0.0138
      18    H8      20.866880   16.185843   18.868730 H          1 MOL1         0.0794
      19    H9      19.617162   15.932260   17.656271 H          1 MOL1         0.0794
      20    O5      20.544893   14.201526   18.349056 O.3        1 MOL1        -0.5486
      21    H10     21.090702   13.954351   19.131723 H          1 MOL1         0.3769
      22    C7      14.792368   20.319738   21.689676 C.3        1 MOL1         0.2972
      23    H11     14.116641   21.144246   21.951740 H          1 MOL1         0.0751
      24    O6      16.162651   20.755672   21.611152 O.3        1 MOL1        -0.3740
      25    C8      14.703297   19.205583   22.757374 C.3        1 MOL1         0.1003
      26    H12     13.677005   18.816033   22.748195 H          1 MOL1         0.0783
      27    O7      15.001672   19.730943   24.061012 O.3        1 MOL1        -0.5519
      28    H13     15.493721   20.577415   23.923988 H          1 MOL1         0.3769
      29    C9      15.661554   18.045145   22.407975 C.3        1 MOL1         0.1053
      30    H14     16.687544   18.420891   22.502640 H          1 MOL1         0.0783
      31    O8      15.456210   16.973920   23.333769 O.3        1 MOL1        -0.5519
      32    H15     15.469671   17.403580   24.218062 H          1 MOL1         0.3769
      33    C10     15.459935   17.547291   20.952114 C.3        1 MOL1         0.1018
      34    H16     14.571605   16.902786   20.917586 H          1 MOL1         0.0783
      35    C11     15.323238   18.708378   19.923926 C.3        1 MOL1         0.1043
      36    H17     16.323241   19.135630   19.779382 H          1 MOL1         0.0783
      37    O9      14.435701   19.747007   20.414981 O.3        1 MOL1        -0.3740
      38    C12     14.820951   18.250651   18.533903 C.3        1 MOL1         0.0138
      39    H18     15.617574   17.670292   18.049076 H          1 MOL1         0.0794
      40    H19     14.643154   19.140253   17.914688 H          1 MOL1         0.0794
      41    O10     13.629614   17.459724   18.624146 O.3        1 MOL1        -0.5486
      42    H20     13.323473   17.276040   17.709178 H          1 MOL1         0.3769
      43    C13     18.438439   24.236828   21.505706 C.3        1 MOL1         0.2972
      44    H21     18.790455   25.270333   21.394347 H          1 MOL1         0.0751
      45    O11     19.515866   23.337265   21.818018 O.3        1 MOL1        -0.3740
      46    C14     17.425967   24.144139   22.674531 C.3        1 MOL1         0.1003
      47    H22     16.578902   24.800930   22.437644 H          1 MOL1         0.0783
      48    O12     18.040198   24.577632   23.898636 O.3        1 MOL1        -0.5519
      49    H23     18.990560   24.309595   23.849411 H          1 MOL1         0.3769
      50    C15     16.891679   22.699008   22.821523 C.3        1 MOL1         0.1053
      51    H24     17.724374   22.057525   23.140302 H          1 MOL1         0.0783
      52    O13     15.853034   22.665535   23.805427 O.3        1 MOL1        -0.5519
      53    H25     16.198385   23.196796   24.557449 H          1 MOL1         0.3769
      54    C16     16.361298   22.171098   21.466531 C.3        1 MOL1         0.1018
      55    H26     15.429436   22.697397   21.220902 H          1 MOL1         0.0783
      56    C17     17.382616   22.381621   20.316438 C.3        1 MOL1         0.1043
      57    H27     18.253988   21.745037   20.517219 H          1 MOL1         0.0783
      58    O14     17.797506   23.771908   20.296225 O.3        1 MOL1        -0.3740
      59    C18     16.857538   21.992377   18.909012 C.3        1 MOL1         0.0138
      60    H28     17.103744   20.938877   18.726518 H          1 MOL1         0.0794
      61    H29     17.401456   22.578943   18.156617 H          1 MOL1         0.0794
      62    O15     15.446050   22.185506   18.754947 O.3        1 MOL1        -0.5486
      63    H30     14.996719   21.482887   19.279892 H          1 MOL1         0.3769
      64    C19     23.594913   22.697141   21.417876 C.3        1 MOL1         0.2972
      65    H31     24.670868   22.801111   21.227010 H          1 MOL1         0.0751
      66    O16     23.263456   21.344433   21.792982 O.3        1 MOL1        -0.3740
      67    C20     23.172464   23.683480   22.539417 C.3        1 MOL1         0.1003
      68    H32     23.406714   24.693857   22.180452 H          1 MOL1         0.0783
      69    O17     23.899792   23.445886   23.753748 O.3        1 MOL1        -0.5519
      70    H33     23.616254   22.556091   24.102425 H          1 MOL1         0.3769
      71    C21     21.652061   23.616475   22.797655 C.3        1 MOL1         0.1053
      72    H34     21.428988   22.628312   23.211736 H          1 MOL1         0.0783
      73    O18     21.265755   24.632261   23.730362 O.3        1 MOL1        -0.5519
      74    H35     21.885231   24.532944   24.487340 H          1 MOL1         0.3769
      75    C22     20.846620   23.768917   21.487972 C.3        1 MOL1         0.1018
      76    H36     20.883338   24.818637   21.168725 H          1 MOL1         0.0783
      77    C23     21.389547   22.844201   20.363703 C.3        1 MOL1         0.1043
      78    H37     21.173439   21.814138   20.669040 H          1 MOL1         0.0783
      79    O19     22.826618   23.014561   20.234141 O.3        1 MOL1        -0.3740
      80    C24     20.741489   23.046572   18.969106 C.3        1 MOL1         0.0138
      81    H38     19.865025   22.391652   18.893637 H          1 MOL1         0.0794
      82    H39     21.450151   22.713078   18.199482 H          1 MOL1         0.0794
      83    O20     20.349826   24.400000   18.717237 O.3        1 MOL1        -0.5486
      84    H40     19.461614   24.516181   19.125390 H          1 MOL1         0.3769
      85    C25     24.925812   17.473111   21.361806 C.3        1 MOL1         0.2972
      86    H41     25.580392   16.675694   20.988593 H          1 MOL1         0.0751
      87    O21     23.927218   16.940126   22.251235 O.3        1 MOL1        -0.3740
      88    C26     25.779073   18.518265   22.129152 C.3        1 MOL1         0.1003
      89    H42     26.598295   18.811933   21.459986 H          1 MOL1         0.0783
      90    O22     26.330541   17.928354   23.315821 O.3        1 MOL1        -0.5519
      91    H43     25.584233   17.457101   23.752588 H          1 MOL1         0.3769
      92    C27     24.990364   19.803656   22.492321 C.3        1 MOL1         0.1053
      93    H44     24.296538   19.571372   23.313081 H          1 MOL1         0.0783
      94    O23     25.927879   20.803725   22.904553 O.3        1 MOL1        -0.5519
      95    H45     26.421038   20.409267   23.655474 H          1 MOL1         0.3769
      96    C28     24.158095   20.326648   21.295333 C.3        1 MOL1         0.1018
      97    H46     24.843634   20.726407   20.536312 H          1 MOL1         0.0783
      98    C29     23.325740   19.182626   20.658168 C.3        1 MOL1         0.1043
      99    H47     22.614365   18.803299   21.403492 H          1 MOL1         0.0783
     100    O24     24.243693   18.133917   20.274315 O.3        1 MOL1        -0.3740
     101    C30     22.511624   19.578103   19.401031 C.3        1 MOL1         0.0138
     102    H48     21.537847   19.965511   19.722051 H          1 MOL1         0.0794
     103    H49     22.309006   18.669919   18.818065 H          1 MOL1         0.0794
     104    O25     23.179909   20.544595   18.581599 O.3        1 MOL1        -0.5486
     105    H50     23.206955   21.390031   19.087429 H          1 MOL1         0.3769
     106    C31     21.218420   13.804244   21.819544 C.3        1 MOL1         0.2972
     107    H51     20.712232   12.832352   21.752061 H          1 MOL1         0.0751
     108    O26     20.299234   14.889643   21.598232 O.3        1 MOL1        -0.3740
     109    C32     21.862951   13.949298   23.214264 C.3        1 MOL1         0.1003
     110    H52     22.588410   13.133055   23.326671 H          1 MOL1         0.0783
     111    O27     20.862673   13.836152   24.238331 O.3        1 MOL1        -0.5519
     112    H53     20.002640   14.071384   23.816150 H          1 MOL1         0.3769
     113    C33     22.629226   15.284348   23.340457 C.3        1 MOL1         0.1053
     114    H54     21.890882   16.096868   23.341028 H          1 MOL1         0.0783
     115    O28     23.344719   15.282682   24.580515 O.3        1 MOL1        -0.5519
     116    H55     22.682132   15.013070   25.254146 H          1 MOL1         0.3769
     117    C34     23.608662   15.526711   22.158868 C.3        1 MOL1         0.1018
     118    H56     24.506486   14.918144   22.326255 H          1 MOL1         0.0783
     119    C35     22.978871   15.162658   20.768015 C.3        1 MOL1         0.1043
     120    H57     22.280240   15.964130   20.500070 H          1 MOL1         0.0783
     121    O29     22.261811   13.901911   20.836988 O.3        1 MOL1        -0.3740
     122    C36     23.983042   14.984875   19.597031 C.3        1 MOL1         0.0138
     123    H58     24.275452   15.963582   19.202266 H          1 MOL1         0.0794
     124    H59     23.468445   14.467090   18.776188 H          1 MOL1         0.0794
     125    O30     25.146108   14.244483   19.986552 O.3        1 MOL1        -0.5486
     126    H60     25.679258   14.079444   19.178398 H          1 MOL1         0.3769
     127    C1      21.621712   21.286951   25.594624 C.2        1 MOL1         0.6173
     128    O1      22.734843   21.268412   25.100352 O.co2      1 MOL1        -0.6755
     129    O2      21.381148   21.801384   26.669429 O.co2      1 MOL1        -0.6755
     130    C2      20.475143   20.715998   24.835292 C.2        1 MOL1        -0.1504
     131    H1      19.498571   20.805911   25.304578 H          1 MOL1         0.0814
     132    C3      20.604629   20.119848   23.628767 C.2        1 MOL1        -0.1394
     133    H2      21.583643   20.017600   23.168116 H          1 MOL1         0.0817
     134    C4      19.453733   19.544438   22.835233 C.3        1 MOL1        -0.1849
     135    H3      19.462190   19.969697   21.823816 H          1 MOL1         0.0736
     136    H4      18.493386   19.829591   23.283979 H          1 MOL1         0.0736
     137    C5      19.544373   18.008583   22.742608 C.3        1 MOL1        -0.1866
     138    H5      18.772167   17.648702   22.055639 H          1 MOL1         0.0738
     139    H6      20.511043   17.717094   22.311451 H          1 MOL1         0.0738
     140    C6      19.352351   17.327642   24.113993 C.3        1 MOL1        -0.2879
     141    H7      18.379856   17.591796   24.548697 H          1 MOL1         0.0750
     142    H8      19.394098   16.237100   24.016254 H          1 MOL1         0.0750
     143    H9      20.137069   17.630598   24.818962 H          1 MOL1         0.0750
@<TRIPOS>BOND
    1     1     2    1
    2     1     3    1
    3     1     4    1
    4     4     5    1
    5     4     6    1
    6     6     7    1
    7     4     8    1
    8     8     9    1
    9     8    10    1
   10    10    11    1
   11     8    12    1
   12    12    13    1
   13    12    14    1
   14    14    15    1
   15     1    16    1
   16    14    16    1
   17    14    17    1
   18    17    18    1
   19    17    19    1
   20    17    20    1
   21    20    21    1
   22    22    23    1
   23    22    24    1
   24    22    25    1
   25    25    26    1
   26    25    27    1
   27    27    28    1
   28    25    29    1
   29    29    30    1
   30    29    31    1
   31    31    32    1
   32     3    33    1
   33    29    33    1
   34    33    34    1
   35    33    35    1
   36    35    36    1
   37    22    37    1
   38    35    37    1
   39    35    38    1
   40    38    39    1
   41    38    40    1
   42    38    41    1
   43    41    42    1
   44    43    44    1
   45    43    45    1
   46    43    46    1
   47    46    47    1
   48    46    48    1
   49    48    49    1
   50    46    50    1
   51    50    51    1
   52    50    52    1
   53    52    53    1
   54    24    54    1
   55    50    54    1
   56    54    55    1
   57    54    56    1
   58    56    57    1
   59    43    58    1
   60    56    58    1
   61    56    59    1
   62    59    60    1
   63    59    61    1
   64    59    62    1
   65    62    63    1
   66    64    65    1
   67    64    66    1
   68    64    67    1
   69    67    68    1
   70    67    69    1
   71    69    70    1
   72    67    71    1
   73    71    72    1
   74    71    73    1
   75    73    74    1
   76    45    75    1
   77    71    75    1
   78    75    76    1
   79    75    77    1
   80    77    78    1
   81    64    79    1
   82    77    79    1
   83    77    80    1
   84    80    81    1
   85    80    82    1
   86    80    83    1
   87    83    84    1
   88    85    86    1
   89    85    87    1
   90    85    88    1
   91    88    89    1
   92    88    90    1
   93    90    91    1
   94    88    92    1
   95    92    93    1
   96    92    94    1
   97    94    95    1
   98    66    96    1
   99    92    96    1
  100    96    97    1
  101    96    98    1
  102    98    99    1
  103    85   100    1
  104    98   100    1
  105    98   101    1
  106   101   102    1
  107   101   103    1
  108   101   104    1
  109   104   105    1
  110   106   107    1
  111    12   108    1
  112   106   108    1
  113   106   109    1
  114   109   110    1
  115   109   111    1
  116   111   112    1
  117   109   113    1
  118   113   114    1
  119   113   115    1
  120   115   116    1
  121    87   117    1
  122   113   117    1
  123   117   118    1
  124   117   119    1
  125   119   120    1
  126   106   121    1
  127   119   121    1
  128   119   122    1
  129   122   123    1
  130   122   124    1
  131   122   125    1
  132   125   126    1
  133   127   128    1
  134   127   129    2
  135   127   130    1
  136   130   131    1
  137   130   132    2
  138   132   133    1
  139   132   134    1
  140   134   135    1
  141   134   136    1
  142   134   137    1
  143   137   138    1
  144   137   139    1
  145   137   140    1
  146   140   141    1
  147   140   142    1
  148   140   143    1
@<TRIPOS>SUBSTRUCTURE
       1 MOL1            1 RESIDUE      1      MOL     
       2 MOL1          143 RESIDUE      1      MOL     
@<SCITEGIC>MOL_PROPERTY
feprocess Rank
SciTegic.value.IntegerValue
131

@<SCITEGIC>MOL_PROPERTY
Conf_Id
SciTegic.value.IntegerValue
82

@<SCITEGIC>MOL_PROPERTY
Probability
SciTegic.value.DoubleValue
0.00

@<SCITEGIC>MOL_PROPERTY
G
SciTegic.value.DoubleValue
502.620

@<SCITEGIC>MOL_PROPERTY
E
SciTegic.value.DoubleValue
322.138

@<SCITEGIC>MOL_PROPERTY
-TS
SciTegic.value.DoubleValue
180.481

@<SCITEGIC>MOL_PROPERTY
U+W
SciTegic.value.DoubleValue
196.050

@<SCITEGIC>MOL_PROPERTY
U
SciTegic.value.DoubleValue
277.689

@<SCITEGIC>MOL_PROPERTY
W
SciTegic.value.DoubleValue
-81.639

@<SCITEGIC>MOL_PROPERTY
W(PB)
SciTegic.value.DoubleValue
-87.640

@<SCITEGIC>MOL_PROPERTY
W(SA)
SciTegic.value.DoubleValue
6.002

@<SCITEGIC>MOL_PROPERTY
Valence
SciTegic.value.DoubleValue
149.691

@<SCITEGIC>MOL_PROPERTY
Coulomb
SciTegic.value.DoubleValue
153.032

@<SCITEGIC>MOL_PROPERTY
VdW
SciTegic.value.DoubleValue
-25.033

@<SCITEGIC>MOL_PROPERTY
VdW6
SciTegic.value.DoubleValue
-178.538

@<SCITEGIC>MOL_PROPERTY
VdW12
SciTegic.value.DoubleValue
153.504

@<SCITEGIC>MOL_PROPERTY
Bond
SciTegic.value.DoubleValue
4.897

@<SCITEGIC>MOL_PROPERTY
Angle
SciTegic.value.DoubleValue
14.922

@<SCITEGIC>MOL_PROPERTY
Pdih
SciTegic.value.DoubleValue
129.864

@<SCITEGIC>MOL_PROPERTY
Idih
SciTegic.value.DoubleValue
0.007

@<SCITEGIC>MOL_PROPERTY
Tether
SciTegic.value.DoubleValue
0.000

@<TRIPOS>MOLECULE
CD_guest-s19_fast_vm2_rndm.mol2 : feprocess host+ligand conformer 132
         143         148           2
SMALL
USER_CHARGES
 
@<TRIPOS>ATOM
       1    C1      16.158395   14.836327   21.767860 C.3        1 MOL1         0.2972
       2    H1      15.061522   14.881257   21.759553 H          1 MOL1         0.0751
       3    O1      16.745916   16.151499   21.729954 O.3        1 MOL1        -0.3740
       4    C2      16.633236   14.095761   23.034197 C.3        1 MOL1         0.1003
       5    H2      16.241179   13.071507   22.984259 H          1 MOL1         0.0783
       6    O2      16.128133   14.741698   24.213944 O.3        1 MOL1        -0.5519
       7    H3      15.874811   15.661399   23.951638 H          1 MOL1         0.3769
       8    C3      18.173296   14.016109   23.077066 C.3        1 MOL1         0.1053
       9    H4      18.546096   15.031636   23.263089 H          1 MOL1         0.0783
      10    O3      18.559529   13.164164   24.160633 O.3        1 MOL1        -0.5519
      11    H5      18.035511   13.479671   24.929993 H          1 MOL1         0.3769
      12    C4      18.803673   13.511319   21.747460 C.3        1 MOL1         0.1018
      13    H6      18.782471   12.414266   21.750448 H          1 MOL1         0.0783
      14    C5      18.084067   14.049921   20.460630 C.3        1 MOL1         0.1043
      15    H7      18.456527   15.063035   20.273391 H          1 MOL1         0.0783
      16    O4      16.644026   14.103002   20.633072 O.3        1 MOL1        -0.3740
      17    C6      18.313947   13.209935   19.175382 C.3        1 MOL1         0.0138
      18    H8      19.310542   13.411674   18.768327 H          1 MOL1         0.0794
      19    H9      17.596320   13.542616   18.413063 H          1 MOL1         0.0794
      20    O5      18.160574   11.805401   19.411364 O.3        1 MOL1        -0.5486
      21    H10     18.223450   11.348216   18.544267 H          1 MOL1         0.3769
      22    C7      15.428905   20.060137   20.877543 C.3        1 MOL1         0.2972
      23    H11     14.783225   20.864573   20.501418 H          1 MOL1         0.0751
      24    O6      16.669547   20.588717   21.386012 O.3        1 MOL1        -0.3740
      25    C8      14.687049   19.308679   22.014386 C.3        1 MOL1         0.1003
      26    H12     13.724370   18.975602   21.605263 H          1 MOL1         0.0783
      27    O7      14.445339   20.185785   23.125844 O.3        1 MOL1        -0.5519
      28    H13     14.948726   21.017589   22.945755 H          1 MOL1         0.3769
      29    C9      15.462883   18.053358   22.475386 C.3        1 MOL1         0.1053
      30    H14     16.378436   18.383391   22.978359 H          1 MOL1         0.0783
      31    O8      14.654063   17.295783   23.381450 O.3        1 MOL1        -0.5519
      32    H15     14.290387   17.960125   24.008968 H          1 MOL1         0.3769
      33    C10     15.863211   17.186969   21.259929 C.3        1 MOL1         0.1018
      34    H16     14.953020   16.774345   20.804246 H          1 MOL1         0.0783
      35    C11     16.609395   18.029406   20.195013 C.3        1 MOL1         0.1043
      36    H17     17.534549   18.410103   20.646290 H          1 MOL1         0.0783
      37    O9      15.756992   19.137976   19.813758 O.3        1 MOL1        -0.3740
      38    C12     17.002635   17.248576   18.914114 C.3        1 MOL1         0.0138
      39    H18     17.981414   16.783906   19.077919 H          1 MOL1         0.0794
      40    H19     17.127382   17.962841   18.089374 H          1 MOL1         0.0794
      41    O10     16.048448   16.243050   18.551577 O.3        1 MOL1        -0.5486
      42    H20     16.116231   15.519176   19.216822 H          1 MOL1         0.3769
      43    C13     18.722120   24.272149   20.881071 C.3        1 MOL1         0.2972
      44    H21     18.981585   25.238244   20.429956 H          1 MOL1         0.0751
      45    O11     19.632391   23.951560   21.946602 O.3        1 MOL1        -0.3740
      46    C14     17.274009   24.332604   21.451164 C.3        1 MOL1         0.1003
      47    H22     16.625915   24.654762   20.625996 H          1 MOL1         0.0783
      48    O12     17.173069   25.288493   22.517109 O.3        1 MOL1        -0.5519
      49    H23     17.704172   24.924943   23.278667 H          1 MOL1         0.3769
      50    C15     16.767017   22.948797   21.931499 C.3        1 MOL1         0.1053
      51    H24     17.326096   22.665164   22.832004 H          1 MOL1         0.0783
      52    O13     15.369066   23.028340   22.232541 O.3        1 MOL1        -0.5519
      53    H25     15.274524   23.827745   22.796975 H          1 MOL1         0.3769
      54    C16     17.015665   21.878948   20.844721 C.3        1 MOL1         0.1018
      55    H26     16.403610   22.123994   19.966036 H          1 MOL1         0.0783
      56    C17     18.499203   21.879345   20.406561 C.3        1 MOL1         0.1043
      57    H27     19.130477   21.659513   21.277093 H          1 MOL1         0.0783
      58    O14     18.794170   23.204555   19.904138 O.3        1 MOL1        -0.3740
      59    C18     18.846505   20.842685   19.308848 C.3        1 MOL1         0.0138
      60    H28     19.019899   19.872630   19.791135 H          1 MOL1         0.0794
      61    H29     19.790892   21.138476   18.834348 H          1 MOL1         0.0794
      62    O15     17.820996   20.711938   18.317645 O.3        1 MOL1        -0.5486
      63    H30     17.046880   20.280764   18.748978 H          1 MOL1         0.3769
      64    C19     23.634320   23.118423   22.005327 C.3        1 MOL1         0.2972
      65    H31     24.730412   23.064776   22.023593 H          1 MOL1         0.0751
      66    O16     23.033413   21.804665   21.987869 O.3        1 MOL1        -0.3740
      67    C20     23.140149   23.898242   23.241788 C.3        1 MOL1         0.1003
      68    H32     23.526782   24.923078   23.172992 H          1 MOL1         0.0783
      69    O17     23.649433   23.274652   24.432565 O.3        1 MOL1        -0.5519
      70    H33     23.722458   22.306871   24.244792 H          1 MOL1         0.3769
      71    C21     21.596068   23.969350   23.244588 C.3        1 MOL1         0.1053
      72    H34     21.244079   22.950667   23.436977 H          1 MOL1         0.0783
      73    O18     21.127267   24.841811   24.280102 O.3        1 MOL1        -0.5519
      74    H35     20.154102   24.663176   24.371055 H          1 MOL1         0.3769
      75    C22     20.997625   24.437324   21.887030 C.3        1 MOL1         0.1018
      76    H36     21.012331   25.534339   21.865890 H          1 MOL1         0.0783
      77    C23     21.751602   23.879939   20.628564 C.3        1 MOL1         0.1043
      78    H37     21.382779   22.864669   20.443377 H          1 MOL1         0.0783
      79    O19     23.185472   23.827538   20.841778 O.3        1 MOL1        -0.3740
      80    C24     21.562701   24.706957   19.328130 C.3        1 MOL1         0.0138
      81    H38     20.568847   24.524348   18.906211 H          1 MOL1         0.0794
      82    H39     22.285561   24.346914   18.583460 H          1 MOL1         0.0794
      83    O20     21.745474   26.110802   19.547554 O.3        1 MOL1        -0.5486
      84    H40     21.702059   26.557800   18.674135 H          1 MOL1         0.3769
      85    C25     24.355760   17.868826   21.192724 C.3        1 MOL1         0.2972
      86    H41     25.043319   17.071213   20.881957 H          1 MOL1         0.0751
      87    O21     23.051467   17.339249   21.492614 O.3        1 MOL1        -0.3740
      88    C26     24.925174   18.564498   22.457694 C.3        1 MOL1         0.1003
      89    H42     25.942073   18.896127   22.210556 H          1 MOL1         0.0783
      90    O22     24.987798   17.646066   23.561144 O.3        1 MOL1        -0.5519
      91    H43     24.648853   16.777653   23.230555 H          1 MOL1         0.3769
      92    C27     24.100287   19.813844   22.843519 C.3        1 MOL1         0.1053
      93    H44     23.108299   19.481868   23.178087 H          1 MOL1         0.0783
      94    O23     24.767028   20.513979   23.898563 O.3        1 MOL1        -0.5519
      95    H45     25.009923   19.816165   24.547604 H          1 MOL1         0.3769
      96    C28     23.923667   20.734977   21.614701 C.3        1 MOL1         0.1018
      97    H46     24.910860   21.111398   21.314958 H          1 MOL1         0.0783
      98    C29     23.313842   19.948820   20.424791 C.3        1 MOL1         0.1043
      99    H47     22.326498   19.575027   20.726108 H          1 MOL1         0.0783
     100    O24     24.190110   18.832487   20.127654 O.3        1 MOL1        -0.3740
     101    C30     23.123491   20.775111   19.126576 C.3        1 MOL1         0.0138
     102    H48     22.153958   21.284157   19.174528 H          1 MOL1         0.0794
     103    H49     23.074653   20.083839   18.274615 H          1 MOL1         0.0794
     104    O25     24.161866   21.738995   18.916365 O.3        1 MOL1        -0.5486
     105    H50     23.990361   22.489896   19.531286 H          1 MOL1         0.3769
     106    C31     21.101764   13.660642   20.782758 C.3        1 MOL1         0.2972
     107    H51     20.850434   12.695496   20.324591 H          1 MOL1         0.0751
     108    O26     20.168686   13.994318   21.827563 O.3        1 MOL1        -0.3740
     109    C32     22.512550   13.589129   21.428784 C.3        1 MOL1         0.1003
     110    H52     23.220056   13.291356   20.643939 H          1 MOL1         0.0783
     111    O27     22.530180   12.613081   22.480533 O.3        1 MOL1        -0.5519
     112    H53     21.725045   12.785671   23.020167 H          1 MOL1         0.3769
     113    C33     22.957814   14.967273   21.979767 C.3        1 MOL1         0.1053
     114    H54     22.311453   15.229142   22.829109 H          1 MOL1         0.0783
     115    O28     24.322332   14.892688   22.408321 O.3        1 MOL1        -0.5519
     116    H55     24.385034   14.056396   22.922054 H          1 MOL1         0.3769
     117    C34     22.794005   16.055298   20.894195 C.3        1 MOL1         0.1018
     118    H56     23.493748   15.843196   20.074365 H          1 MOL1         0.0783
     119    C35     21.358932   16.053102   20.316166 C.3        1 MOL1         0.1043
     120    H57     20.651714   16.280125   21.122165 H          1 MOL1         0.0783
     121    O29     21.093202   14.726681   19.800385 O.3        1 MOL1        -0.3740
     122    C36     21.126972   17.095405   19.192142 C.3        1 MOL1         0.0138
     123    H58     20.872492   18.055240   19.659833 H          1 MOL1         0.0794
     124    H59     20.257867   16.785187   18.598128 H          1 MOL1         0.0794
     125    O30     22.266080   17.266842   18.340274 O.3        1 MOL1        -0.5486
     126    H60     22.971325   17.701253   18.874241 H          1 MOL1         0.3769
     127    C1      18.438012   23.416787   25.767275 C.2        1 MOL1         0.6173
     128    O1      18.076861   23.817182   26.856732 O.co2      1 MOL1        -0.6755
     129    O2      18.401805   24.103093   24.760190 O.co2      1 MOL1        -0.6755
     130    C2      18.994492   22.037373   25.693455 C.2        1 MOL1        -0.1504
     131    H1      19.074151   21.504133   26.637554 H          1 MOL1         0.0814
     132    C3      19.397800   21.456723   24.541511 C.2        1 MOL1        -0.1394
     133    H2      19.305147   21.986016   23.598325 H          1 MOL1         0.0817
     134    C4      20.010707   20.079267   24.438492 C.3        1 MOL1        -0.1849
     135    H3      20.124851   19.629566   25.433857 H          1 MOL1         0.0736
     136    H4      21.018540   20.164760   24.012773 H          1 MOL1         0.0736
     137    C5      19.148212   19.164709   23.550257 C.3        1 MOL1        -0.1866
     138    H5      18.160672   19.051606   24.014168 H          1 MOL1         0.0738
     139    H6      18.993563   19.636146   22.571715 H          1 MOL1         0.0738
     140    C6      19.790035   17.779757   23.352368 C.3        1 MOL1        -0.2879
     141    H7      20.789560   17.872743   22.910319 H          1 MOL1         0.0750
     142    H8      19.887181   17.251292   24.309472 H          1 MOL1         0.0750
     143    H9      19.172390   17.166811   22.685550 H          1 MOL1         0.0750
@<TRIPOS>BOND
    1     1     2    1
    2     1     3    1
    3     1     4    1
    4     4     5    1
    5     4     6    1
    6     6     7    1
    7     4     8    1
    8     8     9    1
    9     8    10    1
   10    10    11    1
   11     8    12    1
   12    12    13    1
   13    12    14    1
   14    14    15    1
   15     1    16    1
   16    14    16    1
   17    14    17    1
   18    17    18    1
   19    17    19    1
   20    17    20    1
   21    20    21    1
   22    22    23    1
   23    22    24    1
   24    22    25    1
   25    25    26    1
   26    25    27    1
   27    27    28    1
   28    25    29    1
   29    29    30    1
   30    29    31    1
   31    31    32    1
   32     3    33    1
   33    29    33    1
   34    33    34    1
   35    33    35    1
   36    35    36    1
   37    22    37    1
   38    35    37    1
   39    35    38    1
   40    38    39    1
   41    38    40    1
   42    38    41    1
   43    41    42    1
   44    43    44    1
   45    43    45    1
   46    43    46    1
   47    46    47    1
   48    46    48    1
   49    48    49    1
   50    46    50    1
   51    50    51    1
   52    50    52    1
   53    52    53    1
   54    24    54    1
   55    50    54    1
   56    54    55    1
   57    54    56    1
   58    56    57    1
   59    43    58    1
   60    56    58    1
   61    56    59    1
   62    59    60    1
   63    59    61    1
   64    59    62    1
   65    62    63    1
   66    64    65    1
   67    64    66    1
   68    64    67    1
   69    67    68    1
   70    67    69    1
   71    69    70    1
   72    67    71    1
   73    71    72    1
   74    71    73    1
   75    73    74    1
   76    45    75    1
   77    71    75    1
   78    75    76    1
   79    75    77    1
   80    77    78    1
   81    64    79    1
   82    77    79    1
   83    77    80    1
   84    80    81    1
   85    80    82    1
   86    80    83    1
   87    83    84    1
   88    85    86    1
   89    85    87    1
   90    85    88    1
   91    88    89    1
   92    88    90    1
   93    90    91    1
   94    88    92    1
   95    92    93    1
   96    92    94    1
   97    94    95    1
   98    66    96    1
   99    92    96    1
  100    96    97    1
  101    96    98    1
  102    98    99    1
  103    85   100    1
  104    98   100    1
  105    98   101    1
  106   101   102    1
  107   101   103    1
  108   101   104    1
  109   104   105    1
  110   106   107    1
  111    12   108    1
  112   106   108    1
  113   106   109    1
  114   109   110    1
  115   109   111    1
  116   111   112    1
  117   109   113    1
  118   113   114    1
  119   113   115    1
  120   115   116    1
  121    87   117    1
  122   113   117    1
  123   117   118    1
  124   117   119    1
  125   119   120    1
  126   106   121    1
  127   119   121    1
  128   119   122    1
  129   122   123    1
  130   122   124    1
  131   122   125    1
  132   125   126    1
  133   127   128    1
  134   127   129    2
  135   127   130    1
  136   130   131    1
  137   130   132    2
  138   132   133    1
  139   132   134    1
  140   134   135    1
  141   134   136    1
  142   134   137    1
  143   137   138    1
  144   137   139    1
  145   137   140    1
  146   140   141    1
  147   140   142    1
  148   140   143    1
@<TRIPOS>SUBSTRUCTURE
       1 MOL1            1 RESIDUE      1      MOL     
       2 MOL1          143 RESIDUE      1      MOL     
@<SCITEGIC>MOL_PROPERTY
feprocess Rank
SciTegic.value.IntegerValue
132

@<SCITEGIC>MOL_PROPERTY
Conf_Id
SciTegic.value.IntegerValue
173

@<SCITEGIC>MOL_PROPERTY
Probability
SciTegic.value.DoubleValue
0.00

@<SCITEGIC>MOL_PROPERTY
G
SciTegic.value.DoubleValue
502.642

@<SCITEGIC>MOL_PROPERTY
E
SciTegic.value.DoubleValue
320.495

@<SCITEGIC>MOL_PROPERTY
-TS
SciTegic.value.DoubleValue
182.147

@<SCITEGIC>MOL_PROPERTY
U+W
SciTegic.value.DoubleValue
194.407

@<SCITEGIC>MOL_PROPERTY
U
SciTegic.value.DoubleValue
276.950

@<SCITEGIC>MOL_PROPERTY
W
SciTegic.value.DoubleValue
-82.543

@<SCITEGIC>MOL_PROPERTY
W(PB)
SciTegic.value.DoubleValue
-88.589

@<SCITEGIC>MOL_PROPERTY
W(SA)
SciTegic.value.DoubleValue
6.046

@<SCITEGIC>MOL_PROPERTY
Valence
SciTegic.value.DoubleValue
149.932

@<SCITEGIC>MOL_PROPERTY
Coulomb
SciTegic.value.DoubleValue
150.001

@<SCITEGIC>MOL_PROPERTY
VdW
SciTegic.value.DoubleValue
-22.982

@<SCITEGIC>MOL_PROPERTY
VdW6
SciTegic.value.DoubleValue
-177.798

@<SCITEGIC>MOL_PROPERTY
VdW12
SciTegic.value.DoubleValue
154.816

@<SCITEGIC>MOL_PROPERTY
Bond
SciTegic.value.DoubleValue
5.245

@<SCITEGIC>MOL_PROPERTY
Angle
SciTegic.value.DoubleValue
15.625

@<SCITEGIC>MOL_PROPERTY
Pdih
SciTegic.value.DoubleValue
129.058

@<SCITEGIC>MOL_PROPERTY
Idih
SciTegic.value.DoubleValue
0.005

@<SCITEGIC>MOL_PROPERTY
Tether
SciTegic.value.DoubleValue
0.000

@<TRIPOS>MOLECULE
CD_guest-s19_fast_vm2_rndm.mol2 : feprocess host+ligand conformer 133
         143         148           2
SMALL
USER_CHARGES
 
@<TRIPOS>ATOM
       1    C1      16.146236   15.095806   21.683167 C.3        1 MOL1         0.2972
       2    H1      15.064438   14.964218   21.815077 H          1 MOL1         0.0751
       3    O1      16.508406   16.487149   21.604108 O.3        1 MOL1        -0.3740
       4    C2      16.903563   14.468220   22.876478 C.3        1 MOL1         0.1003
       5    H2      16.689693   13.391478   22.876988 H          1 MOL1         0.0783
       6    O2      16.457580   15.042678   24.115510 O.3        1 MOL1        -0.5519
       7    H3      16.021774   15.901945   23.892229 H          1 MOL1         0.3769
       8    C3      18.428709   14.655270   22.710759 C.3        1 MOL1         0.1053
       9    H4      18.646421   15.726164   22.803233 H          1 MOL1         0.0783
      10    O3      19.107657   13.940441   23.747614 O.3        1 MOL1        -0.5519
      11    H5      18.628662   14.181483   24.572056 H          1 MOL1         0.3769
      12    C4      18.922009   14.174869   21.321211 C.3        1 MOL1         0.1018
      13    H6      19.001485   13.079794   21.336803 H          1 MOL1         0.0783
      14    C5      18.003151   14.634707   20.151576 C.3        1 MOL1         0.1043
      15    H7      18.190583   15.702758   19.988846 H          1 MOL1         0.0783
      16    O4      16.600229   14.448582   20.476537 O.3        1 MOL1        -0.3740
      17    C6      18.297042   13.915049   18.813857 C.3        1 MOL1         0.0138
      18    H8      19.267547   14.264302   18.436016 H          1 MOL1         0.0794
      19    H9      17.535683   14.212960   18.080390 H          1 MOL1         0.0794
      20    O5      18.317154   12.489828   18.961226 O.3        1 MOL1        -0.5486
      21    H10     18.433145   12.099443   18.067536 H          1 MOL1         0.3769
      22    C7      14.743055   20.244205   21.128150 C.3        1 MOL1         0.2972
      23    H11     14.036026   21.048929   20.889900 H          1 MOL1         0.0751
      24    O6      16.013662   20.765756   21.563001 O.3        1 MOL1        -0.3740
      25    C8      14.179306   19.378868   22.283810 C.3        1 MOL1         0.1003
      26    H12     13.209327   18.980722   21.958768 H          1 MOL1         0.0783
      27    O7      13.995107   20.182019   23.460819 O.3        1 MOL1        -0.5519
      28    H13     14.717800   20.857586   23.460581 H          1 MOL1         0.3769
      29    C9      15.111981   18.181853   22.587942 C.3        1 MOL1         0.1053
      30    H14     16.048246   18.578036   23.001392 H          1 MOL1         0.0783
      31    O8      14.489631   17.315494   23.542188 O.3        1 MOL1        -0.5519
      32    H15     14.133496   17.914794   24.235735 H          1 MOL1         0.3769
      33    C10     15.444136   17.401694   21.293314 C.3        1 MOL1         0.1018
      34    H16     14.540959   16.880832   20.948728 H          1 MOL1         0.0783
      35    C11     15.944443   18.347098   20.168459 C.3        1 MOL1         0.1043
      36    H17     16.896627   18.789902   20.488575 H          1 MOL1         0.0783
      37    O9      14.966596   19.400418   19.975954 O.3        1 MOL1        -0.3740
      38    C12     16.206471   17.648370   18.808413 C.3        1 MOL1         0.0138
      39    H18     17.251390   17.314326   18.787052 H          1 MOL1         0.0794
      40    H19     16.094883   18.389097   18.005534 H          1 MOL1         0.0794
      41    O10     15.341958   16.530978   18.568401 O.3        1 MOL1        -0.5486
      42    H20     15.625979   15.807348   19.174268 H          1 MOL1         0.3769
      43    C13     18.427617   24.157615   21.160420 C.3        1 MOL1         0.2972
      44    H21     18.788668   25.172088   20.948052 H          1 MOL1         0.0751
      45    O11     19.492592   23.300714   21.612011 O.3        1 MOL1        -0.3740
      46    C14     17.358233   24.207066   22.280304 C.3        1 MOL1         0.1003
      47    H22     16.543519   24.855530   21.932741 H          1 MOL1         0.0783
      48    O12     17.922310   24.755327   23.482421 O.3        1 MOL1        -0.5519
      49    H23     18.886057   24.536882   23.468481 H          1 MOL1         0.3769
      50    C15     16.769359   22.801428   22.549684 C.3        1 MOL1         0.1053
      51    H24     17.561175   22.173555   22.981860 H          1 MOL1         0.0783
      52    O13     15.676567   22.906604   23.469216 O.3        1 MOL1        -0.5519
      53    H25     16.008308   23.482096   24.193813 H          1 MOL1         0.3769
      54    C16     16.289209   22.140616   21.235391 C.3        1 MOL1         0.1018
      55    H26     15.393329   22.671223   20.887107 H          1 MOL1         0.0783
      56    C17     17.389495   22.192841   20.138600 C.3        1 MOL1         0.1043
      57    H27     18.225930   21.572737   20.478954 H          1 MOL1         0.0783
      58    O14     17.842586   23.562230   19.981607 O.3        1 MOL1        -0.3740
      59    C18     16.969547   21.656375   18.746990 C.3        1 MOL1         0.0138
      60    H28     17.124066   20.570304   18.731870 H          1 MOL1         0.0794
      61    H29     17.641592   22.082923   17.990414 H          1 MOL1         0.0794
      62    O15     15.609056   21.952341   18.415824 O.3        1 MOL1        -0.5486
      63    H30     15.068642   21.208463   18.766295 H          1 MOL1         0.3769
      64    C19     23.646696   22.818584   21.465642 C.3        1 MOL1         0.2972
      65    H31     24.711809   22.989613   21.264180 H          1 MOL1         0.0751
      66    O16     23.435134   21.508792   22.041484 O.3        1 MOL1        -0.3740
      67    C20     23.117552   23.909140   22.441727 C.3        1 MOL1         0.1003
      68    H32     23.363868   24.880060   21.993097 H          1 MOL1         0.0783
      69    O17     23.752270   23.811872   23.725377 O.3        1 MOL1        -0.5519
      70    H33     23.382064   22.996256   24.158912 H          1 MOL1         0.3769
      71    C21     21.580256   23.848218   22.622144 C.3        1 MOL1         0.1053
      72    H34     21.349959   22.959975   23.216130 H          1 MOL1         0.0783
      73    O18     21.125278   25.013660   23.318576 O.3        1 MOL1        -0.5519
      74    H35     21.712986   25.091027   24.102443 H          1 MOL1         0.3769
      75    C22     20.830267   23.716486   21.277422 C.3        1 MOL1         0.1018
      76    H36     20.852567   24.686538   20.763642 H          1 MOL1         0.0783
      77    C23     21.471131   22.633989   20.371856 C.3        1 MOL1         0.1043
      78    H37     21.344467   21.664416   20.862571 H          1 MOL1         0.0783
      79    O19     22.881646   22.919708   20.244268 O.3        1 MOL1        -0.3740
      80    C24     20.860915   22.510078   18.952256 C.3        1 MOL1         0.0138
      81    H38     20.022091   21.804784   18.994313 H          1 MOL1         0.0794
      82    H39     21.613444   22.066864   18.286769 H          1 MOL1         0.0794
      83    O20     20.408852   23.759330   18.418466 O.3        1 MOL1        -0.5486
      84    H40     19.522991   23.932377   18.813149 H          1 MOL1         0.3769
      85    C25     25.030337   17.652860   21.731153 C.3        1 MOL1         0.2972
      86    H41     25.697407   16.785114   21.649251 H          1 MOL1         0.0751
      87    O21     23.644841   17.257446   21.694695 O.3        1 MOL1        -0.3740
      88    C26     25.305368   18.382186   23.064212 C.3        1 MOL1         0.1003
      89    H42     26.356275   18.698493   23.058949 H          1 MOL1         0.0783
      90    O22     25.093634   17.470687   24.155280 O.3        1 MOL1        -0.5519
      91    H43     24.406147   16.826039   23.860880 H          1 MOL1         0.3769
      92    C27     24.431280   19.654947   23.194811 C.3        1 MOL1         0.1053
      93    H44     23.387474   19.335288   23.316293 H          1 MOL1         0.0783
      94    O23     24.853781   20.410497   24.336934 O.3        1 MOL1        -0.5519
      95    H45     24.053815   20.907406   24.647738 H          1 MOL1         0.3769
      96    C28     24.526980   20.559150   21.934399 C.3        1 MOL1         0.1018
      97    H46     25.497479   21.071102   21.968825 H          1 MOL1         0.0783
      98    C29     24.411823   19.745235   20.604654 C.3        1 MOL1         0.1043
      99    H47     23.368701   19.427528   20.490950 H          1 MOL1         0.0783
     100    O24     25.265708   18.572617   20.650020 O.3        1 MOL1        -0.3740
     101    C30     24.813118   20.516682   19.322750 C.3        1 MOL1         0.0138
     102    H48     23.993785   21.180754   19.028660 H          1 MOL1         0.0794
     103    H49     24.933408   19.792101   18.506067 H          1 MOL1         0.0794
     104    O25     26.022427   21.266518   19.494479 O.3        1 MOL1        -0.5486
     105    H50     26.235083   21.688420   18.633917 H          1 MOL1         0.3769
     106    C31     21.265896   13.997251   20.586958 C.3        1 MOL1         0.2972
     107    H51     20.890167   13.057780   20.161398 H          1 MOL1         0.0751
     108    O26     20.198002   14.809083   21.112159 O.3        1 MOL1        -0.3740
     109    C32     22.276848   13.730972   21.734321 C.3        1 MOL1         0.1003
     110    H52     23.116539   13.170409   21.303342 H          1 MOL1         0.0783
     111    O27     21.687333   12.950071   22.785501 O.3        1 MOL1        -0.5519
     112    H53     20.849174   13.403469   23.057627 H          1 MOL1         0.3769
     113    C33     22.833580   15.065533   22.293118 C.3        1 MOL1         0.1053
     114    H54     22.011327   15.610014   22.777945 H          1 MOL1         0.0783
     115    O28     23.863610   14.790397   23.247549 O.3        1 MOL1        -0.5519
     116    H55     23.504399   14.070134   23.812129 H          1 MOL1         0.3769
     117    C34     23.394860   15.946539   21.149496 C.3        1 MOL1         0.1018
     118    H56     24.311605   15.475730   20.770874 H          1 MOL1         0.0783
     119    C35     22.386624   16.087319   19.977936 C.3        1 MOL1         0.1043
     120    H57     21.521388   16.652733   20.336937 H          1 MOL1         0.0783
     121    O29     21.949732   14.766794   19.570645 O.3        1 MOL1        -0.3740
     122    C36     22.934081   16.842514   18.738948 C.3        1 MOL1         0.0138
     123    H58     22.758606   17.916000   18.882045 H          1 MOL1         0.0794
     124    H59     22.350617   16.539617   17.859396 H          1 MOL1         0.0794
     125    O30     24.329486   16.616336   18.506802 O.3        1 MOL1        -0.5486
     126    H60     24.821302   17.171334   19.155832 H          1 MOL1         0.3769
     127    C1      21.715794   20.642976   25.174590 C.2        1 MOL1         0.6173
     128    O1      22.390564   21.641471   24.992851 O.co2      1 MOL1        -0.6755
     129    O2      21.865599   19.914805   26.136562 O.co2      1 MOL1        -0.6755
     130    C2      20.717581   20.279000   24.129860 C.2        1 MOL1        -0.1504
     131    H1      20.609427   20.974788   23.304945 H          1 MOL1         0.0814
     132    C3      19.979195   19.146751   24.150451 C.2        1 MOL1        -0.1394
     133    H2      20.084999   18.429835   24.963988 H          1 MOL1         0.0817
     134    C4      18.966321   18.777283   23.085772 C.3        1 MOL1        -0.1849
     135    H3      18.378951   19.657295   22.792127 H          1 MOL1         0.0736
     136    H4      18.253677   18.063036   23.517546 H          1 MOL1         0.0736
     137    C5      19.612664   18.132274   21.839755 C.3        1 MOL1        -0.1866
     138    H5      20.289883   17.328956   22.156661 H          1 MOL1         0.0738
     139    H6      18.830759   17.663911   21.231950 H          1 MOL1         0.0738
     140    C6      20.375300   19.142876   20.963839 C.3        1 MOL1        -0.2879
     141    H7      21.280534   19.485771   21.478795 H          1 MOL1         0.0750
     142    H8      20.673278   18.694087   20.009837 H          1 MOL1         0.0750
     143    H9      19.746794   20.010662   20.743044 H          1 MOL1         0.0750
@<TRIPOS>BOND
    1     1     2    1
    2     1     3    1
    3     1     4    1
    4     4     5    1
    5     4     6    1
    6     6     7    1
    7     4     8    1
    8     8     9    1
    9     8    10    1
   10    10    11    1
   11     8    12    1
   12    12    13    1
   13    12    14    1
   14    14    15    1
   15     1    16    1
   16    14    16    1
   17    14    17    1
   18    17    18    1
   19    17    19    1
   20    17    20    1
   21    20    21    1
   22    22    23    1
   23    22    24    1
   24    22    25    1
   25    25    26    1
   26    25    27    1
   27    27    28    1
   28    25    29    1
   29    29    30    1
   30    29    31    1
   31    31    32    1
   32     3    33    1
   33    29    33    1
   34    33    34    1
   35    33    35    1
   36    35    36    1
   37    22    37    1
   38    35    37    1
   39    35    38    1
   40    38    39    1
   41    38    40    1
   42    38    41    1
   43    41    42    1
   44    43    44    1
   45    43    45    1
   46    43    46    1
   47    46    47    1
   48    46    48    1
   49    48    49    1
   50    46    50    1
   51    50    51    1
   52    50    52    1
   53    52    53    1
   54    24    54    1
   55    50    54    1
   56    54    55    1
   57    54    56    1
   58    56    57    1
   59    43    58    1
   60    56    58    1
   61    56    59    1
   62    59    60    1
   63    59    61    1
   64    59    62    1
   65    62    63    1
   66    64    65    1
   67    64    66    1
   68    64    67    1
   69    67    68    1
   70    67    69    1
   71    69    70    1
   72    67    71    1
   73    71    72    1
   74    71    73    1
   75    73    74    1
   76    45    75    1
   77    71    75    1
   78    75    76    1
   79    75    77    1
   80    77    78    1
   81    64    79    1
   82    77    79    1
   83    77    80    1
   84    80    81    1
   85    80    82    1
   86    80    83    1
   87    83    84    1
   88    85    86    1
   89    85    87    1
   90    85    88    1
   91    88    89    1
   92    88    90    1
   93    90    91    1
   94    88    92    1
   95    92    93    1
   96    92    94    1
   97    94    95    1
   98    66    96    1
   99    92    96    1
  100    96    97    1
  101    96    98    1
  102    98    99    1
  103    85   100    1
  104    98   100    1
  105    98   101    1
  106   101   102    1
  107   101   103    1
  108   101   104    1
  109   104   105    1
  110   106   107    1
  111    12   108    1
  112   106   108    1
  113   106   109    1
  114   109   110    1
  115   109   111    1
  116   111   112    1
  117   109   113    1
  118   113   114    1
  119   113   115    1
  120   115   116    1
  121    87   117    1
  122   113   117    1
  123   117   118    1
  124   117   119    1
  125   119   120    1
  126   106   121    1
  127   119   121    1
  128   119   122    1
  129   122   123    1
  130   122   124    1
  131   122   125    1
  132   125   126    1
  133   127   128    1
  134   127   129    2
  135   127   130    1
  136   130   131    1
  137   130   132    2
  138   132   133    1
  139   132   134    1
  140   134   135    1
  141   134   136    1
  142   134   137    1
  143   137   138    1
  144   137   139    1
  145   137   140    1
  146   140   141    1
  147   140   142    1
  148   140   143    1
@<TRIPOS>SUBSTRUCTURE
       1 MOL1            1 RESIDUE      1      MOL     
       2 MOL1          143 RESIDUE      1      MOL     
@<SCITEGIC>MOL_PROPERTY
feprocess Rank
SciTegic.value.IntegerValue
133

@<SCITEGIC>MOL_PROPERTY
Conf_Id
SciTegic.value.IntegerValue
64

@<SCITEGIC>MOL_PROPERTY
Probability
SciTegic.value.DoubleValue
0.00

@<SCITEGIC>MOL_PROPERTY
G
SciTegic.value.DoubleValue
502.659

@<SCITEGIC>MOL_PROPERTY
E
SciTegic.value.DoubleValue
319.711

@<SCITEGIC>MOL_PROPERTY
-TS
SciTegic.value.DoubleValue
182.948

@<SCITEGIC>MOL_PROPERTY
U+W
SciTegic.value.DoubleValue
193.622

@<SCITEGIC>MOL_PROPERTY
U
SciTegic.value.DoubleValue
277.248

@<SCITEGIC>MOL_PROPERTY
W
SciTegic.value.DoubleValue
-83.625

@<SCITEGIC>MOL_PROPERTY
W(PB)
SciTegic.value.DoubleValue
-89.611

@<SCITEGIC>MOL_PROPERTY
W(SA)
SciTegic.value.DoubleValue
5.985

@<SCITEGIC>MOL_PROPERTY
Valence
SciTegic.value.DoubleValue
152.590

@<SCITEGIC>MOL_PROPERTY
Coulomb
SciTegic.value.DoubleValue
150.252

@<SCITEGIC>MOL_PROPERTY
VdW
SciTegic.value.DoubleValue
-25.594

@<SCITEGIC>MOL_PROPERTY
VdW6
SciTegic.value.DoubleValue
-181.864

@<SCITEGIC>MOL_PROPERTY
VdW12
SciTegic.value.DoubleValue
156.270

@<SCITEGIC>MOL_PROPERTY
Bond
SciTegic.value.DoubleValue
4.918

@<SCITEGIC>MOL_PROPERTY
Angle
SciTegic.value.DoubleValue
13.701

@<SCITEGIC>MOL_PROPERTY
Pdih
SciTegic.value.DoubleValue
133.963

@<SCITEGIC>MOL_PROPERTY
Idih
SciTegic.value.DoubleValue
0.007

@<SCITEGIC>MOL_PROPERTY
Tether
SciTegic.value.DoubleValue
0.000

@<TRIPOS>MOLECULE
CD_guest-s19_fast_vm2_rndm.mol2 : feprocess host+ligand conformer 134
         143         148           2
SMALL
USER_CHARGES
 
@<TRIPOS>ATOM
       1    C1      16.231678   15.175556   21.523713 C.3        1 MOL1         0.2972
       2    H1      15.152222   14.982915   21.480183 H          1 MOL1         0.0751
       3    O1      16.519806   16.578141   21.674692 O.3        1 MOL1        -0.3740
       4    C2      16.850228   14.434627   22.734296 C.3        1 MOL1         0.1003
       5    H2      16.664856   13.361807   22.593316 H          1 MOL1         0.0783
       6    O2      16.237234   14.860113   23.962083 O.3        1 MOL1        -0.5519
       7    H3      15.945637   15.797495   23.834578 H          1 MOL1         0.3769
       8    C3      18.381159   14.649527   22.787715 C.3        1 MOL1         0.1053
       9    H4      18.577381   15.711246   22.993033 H          1 MOL1         0.0783
      10    O3      18.927147   13.841481   23.833885 O.3        1 MOL1        -0.5519
      11    H5      18.322508   13.978006   24.597802 H          1 MOL1         0.3769
      12    C4      19.033444   14.283044   21.431872 C.3        1 MOL1         0.1018
      13    H6      18.987663   13.193302   21.308878 H          1 MOL1         0.0783
      14    C5      18.307307   14.966750   20.238614 C.3        1 MOL1         0.1043
      15    H7      18.477459   16.047873   20.304480 H          1 MOL1         0.0783
      16    O4      16.880456   14.710594   20.318904 O.3        1 MOL1        -0.3740
      17    C6      18.819371   14.514120   18.848847 C.3        1 MOL1         0.0138
      18    H8      19.791909   14.988858   18.662424 H          1 MOL1         0.0794
      19    H9      18.125312   14.886785   18.083933 H          1 MOL1         0.0794
      20    O5      18.952753   13.092205   18.741837 O.3        1 MOL1        -0.5486
      21    H10     19.849796   12.860091   19.064934 H          1 MOL1         0.3769
      22    C7      14.779782   20.363839   21.344681 C.3        1 MOL1         0.2972
      23    H11     14.043696   21.165805   21.205758 H          1 MOL1         0.0751
      24    O6      16.106463   20.909339   21.475453 O.3        1 MOL1        -0.3740
      25    C8      14.415079   19.557256   22.624198 C.3        1 MOL1         0.1003
      26    H12     13.370517   19.241408   22.506815 H          1 MOL1         0.0783
      27    O7      14.526032   20.373047   23.801129 O.3        1 MOL1        -0.5519
      28    H13     15.485992   20.626574   23.893241 H          1 MOL1         0.3769
      29    C9      15.271396   18.281195   22.801577 C.3        1 MOL1         0.1053
      30    H14     16.266638   18.588644   23.132579 H          1 MOL1         0.0783
      31    O8      14.686645   17.449293   23.808608 O.3        1 MOL1        -0.5519
      32    H15     14.508321   18.050874   24.565604 H          1 MOL1         0.3769
      33    C10     15.416004   17.482713   21.484934 C.3        1 MOL1         0.1018
      34    H16     14.471824   16.957435   21.290088 H          1 MOL1         0.0783
      35    C11     15.754589   18.395114   20.278460 C.3        1 MOL1         0.1043
      36    H17     16.750688   18.820075   20.448148 H          1 MOL1         0.0783
      37    O9      14.780113   19.467333   20.208801 O.3        1 MOL1        -0.3740
      38    C12     15.809839   17.663488   18.911518 C.3        1 MOL1         0.0138
      39    H18     16.823805   17.264428   18.774891 H          1 MOL1         0.0794
      40    H19     15.644118   18.397396   18.111904 H          1 MOL1         0.0794
      41    O10     14.861334   16.596959   18.799371 O.3        1 MOL1        -0.5486
      42    H20     15.282746   15.801317   19.196628 H          1 MOL1         0.3769
      43    C13     18.604044   24.036206   20.354064 C.3        1 MOL1         0.2972
      44    H21     19.078157   24.932467   19.934329 H          1 MOL1         0.0751
      45    O11     19.584146   23.139331   20.913256 O.3        1 MOL1        -0.3740
      46    C14     17.519288   24.409626   21.401416 C.3        1 MOL1         0.1003
      47    H22     16.764339   25.002264   20.868526 H          1 MOL1         0.0783
      48    O12     18.048622   25.206772   22.471463 O.3        1 MOL1        -0.5519
      49    H23     18.658532   24.620926   22.986495 H          1 MOL1         0.3769
      50    C15     16.809354   23.150063   21.959911 C.3        1 MOL1         0.1053
      51    H24     17.521180   22.605186   22.593957 H          1 MOL1         0.0783
      52    O13     15.681584   23.569385   22.735554 O.3        1 MOL1        -0.5519
      53    H25     16.039114   24.193224   23.403125 H          1 MOL1         0.3769
      54    C16     16.337503   22.186928   20.837768 C.3        1 MOL1         0.1018
      55    H26     15.420580   22.600844   20.398879 H          1 MOL1         0.0783
      56    C17     17.405590   22.001677   19.719500 C.3        1 MOL1         0.1043
      57    H27     18.221398   21.401303   20.136587 H          1 MOL1         0.0783
      58    O14     17.922206   23.297723   19.317802 O.3        1 MOL1        -0.3740
      59    C18     16.923305   21.261992   18.445667 C.3        1 MOL1         0.0138
      60    H28     17.113405   20.190439   18.574493 H          1 MOL1         0.0794
      61    H29     17.541575   21.588359   17.598754 H          1 MOL1         0.0794
      62    O15     15.538640   21.475857   18.150860 O.3        1 MOL1        -0.5486
      63    H30     15.027052   20.887663   18.753936 H          1 MOL1         0.3769
      64    C19     23.229170   22.466614   22.614424 C.3        1 MOL1         0.2972
      65    H31     24.201229   22.498340   23.122472 H          1 MOL1         0.0751
      66    O16     23.007436   21.174678   22.009258 O.3        1 MOL1        -0.3740
      67    C20     22.105521   22.783383   23.636333 C.3        1 MOL1         0.1003
      68    H32     22.309878   23.784582   24.036790 H          1 MOL1         0.0783
      69    O17     22.112994   21.837727   24.720610 O.3        1 MOL1        -0.5519
      70    H33     21.199771   21.458158   24.800515 H          1 MOL1         0.3769
      71    C21     20.719070   22.826007   22.957814 C.3        1 MOL1         0.1053
      72    H34     20.462480   21.798028   22.675646 H          1 MOL1         0.0783
      73    O18     19.745929   23.343087   23.875404 O.3        1 MOL1        -0.5519
      74    H35     19.506921   22.585831   24.471959 H          1 MOL1         0.3769
      75    C22     20.695616   23.669784   21.661260 C.3        1 MOL1         0.1018
      76    H36     20.570741   24.730678   21.913030 H          1 MOL1         0.0783
      77    C23     21.954389   23.467329   20.774111 C.3        1 MOL1         0.1043
      78    H37     21.844229   22.493556   20.286466 H          1 MOL1         0.0783
      79    O19     23.171443   23.459216   21.565391 O.3        1 MOL1        -0.3740
      80    C24     22.094438   24.525337   19.653550 C.3        1 MOL1         0.0138
      81    H38     21.298623   24.357406   18.915454 H          1 MOL1         0.0794
      82    H39     23.052361   24.371259   19.139215 H          1 MOL1         0.0794
      83    O20     22.012358   25.862591   20.160737 O.3        1 MOL1        -0.5486
      84    H40     22.179967   26.476762   19.412851 H          1 MOL1         0.3769
      85    C25     25.047038   17.771714   20.823166 C.3        1 MOL1         0.2972
      86    H41     25.732311   17.015032   20.422144 H          1 MOL1         0.0751
      87    O21     23.778097   17.204980   21.204077 O.3        1 MOL1        -0.3740
      88    C26     25.657841   18.468597   22.062488 C.3        1 MOL1         0.1003
      89    H42     26.571322   18.978121   21.729022 H          1 MOL1         0.0783
      90    O22     26.003336   17.514236   23.078252 O.3        1 MOL1        -0.5519
      91    H43     25.225587   16.911398   23.195944 H          1 MOL1         0.3769
      92    C27     24.696083   19.546164   22.625136 C.3        1 MOL1         0.1053
      93    H44     23.821871   19.039037   23.056950 H          1 MOL1         0.0783
      94    O23     25.389268   20.277973   23.641199 O.3        1 MOL1        -0.5519
      95    H45     25.778705   19.594686   24.229891 H          1 MOL1         0.3769
      96    C28     24.194301   20.513502   21.515712 C.3        1 MOL1         0.1018
      97    H46     24.995702   21.231327   21.299319 H          1 MOL1         0.0783
      98    C29     23.799133   19.780676   20.199251 C.3        1 MOL1         0.1043
      99    H47     22.852406   19.263603   20.376497 H          1 MOL1         0.0783
     100    O24     24.807610   18.802833   19.843386 O.3        1 MOL1        -0.3740
     101    C30     23.570974   20.709274   18.978483 C.3        1 MOL1         0.0138
     102    H48     22.515713   21.006642   18.959820 H          1 MOL1         0.0794
     103    H49     23.744129   20.129824   18.061834 H          1 MOL1         0.0794
     104    O25     24.407810   21.873460   18.986974 O.3        1 MOL1        -0.5486
     105    H50     24.170966   22.402036   19.782252 H          1 MOL1         0.3769
     106    C31     21.436265   13.791600   21.287495 C.3        1 MOL1         0.2972
     107    H51     21.039208   12.769735   21.245842 H          1 MOL1         0.0751
     108    O26     20.390463   14.769217   21.466917 O.3        1 MOL1        -0.3740
     109    C32     22.441850   13.923730   22.458086 C.3        1 MOL1         0.1003
     110    H52     23.270838   13.232750   22.256735 H          1 MOL1         0.0783
     111    O27     21.835841   13.570179   23.710677 O.3        1 MOL1        -0.5519
     112    H53     20.889204   13.860588   23.674113 H          1 MOL1         0.3769
     113    C33     23.024534   15.354526   22.518433 C.3        1 MOL1         0.1053
     114    H54     22.209613   16.047636   22.769871 H          1 MOL1         0.0783
     115    O28     24.033871   15.405857   23.530878 O.3        1 MOL1        -0.5519
     116    H55     23.641516   14.932985   24.299233 H          1 MOL1         0.3769
     117    C34     23.620368   15.774520   21.150773 C.3        1 MOL1         0.1018
     118    H56     24.577406   15.256264   21.009762 H          1 MOL1         0.0783
     119    C35     22.656416   15.459988   19.969308 C.3        1 MOL1         0.1043
     120    H57     21.813337   16.158720   20.028454 H          1 MOL1         0.0783
     121    O29     22.144362   14.105937   20.070360 O.3        1 MOL1        -0.3740
     122    C36     23.299643   15.639016   18.572840 C.3        1 MOL1         0.0138
     123    H58     23.514208   16.704787   18.415491 H          1 MOL1         0.0794
     124    H59     22.563339   15.342806   17.814056 H          1 MOL1         0.0794
     125    O30     24.498392   14.868975   18.415769 O.3        1 MOL1        -0.5486
     126    H60     25.216220   15.319829   18.905740 H          1 MOL1         0.3769
     127    C1      18.518749   20.368047   24.217063 C.2        1 MOL1         0.6173
     128    O1      17.347776   20.644681   24.398583 O.co2      1 MOL1        -0.6755
     129    O2      19.424386   20.776261   24.925246 O.co2      1 MOL1        -0.6755
     130    C2      18.847862   19.568215   23.007711 C.2        1 MOL1        -0.1504
     131    H1      18.016305   19.322895   22.360869 H          1 MOL1         0.0814
     132    C3      20.086749   19.153446   22.669093 C.2        1 MOL1        -0.1394
     133    H2      20.951713   19.386363   23.289831 H          1 MOL1         0.0817
     134    C4      20.359523   18.340145   21.425668 C.3        1 MOL1        -0.1849
     135    H3      19.770642   17.417745   21.459416 H          1 MOL1         0.0736
     136    H4      21.407994   18.034839   21.424111 H          1 MOL1         0.0736
     137    C5      20.027894   19.127994   20.140079 C.3        1 MOL1        -0.1866
     138    H5      18.952636   19.332125   20.115157 H          1 MOL1         0.0738
     139    H6      20.536149   20.101594   20.163525 H          1 MOL1         0.0738
     140    C6      20.417035   18.366649   18.857901 C.3        1 MOL1        -0.2879
     141    H7      21.497246   18.184464   18.818156 H          1 MOL1         0.0750
     142    H8      19.901528   17.400907   18.804344 H          1 MOL1         0.0750
     143    H9      20.141269   18.946960   17.968145 H          1 MOL1         0.0750
@<TRIPOS>BOND
    1     1     2    1
    2     1     3    1
    3     1     4    1
    4     4     5    1
    5     4     6    1
    6     6     7    1
    7     4     8    1
    8     8     9    1
    9     8    10    1
   10    10    11    1
   11     8    12    1
   12    12    13    1
   13    12    14    1
   14    14    15    1
   15     1    16    1
   16    14    16    1
   17    14    17    1
   18    17    18    1
   19    17    19    1
   20    17    20    1
   21    20    21    1
   22    22    23    1
   23    22    24    1
   24    22    25    1
   25    25    26    1
   26    25    27    1
   27    27    28    1
   28    25    29    1
   29    29    30    1
   30    29    31    1
   31    31    32    1
   32     3    33    1
   33    29    33    1
   34    33    34    1
   35    33    35    1
   36    35    36    1
   37    22    37    1
   38    35    37    1
   39    35    38    1
   40    38    39    1
   41    38    40    1
   42    38    41    1
   43    41    42    1
   44    43    44    1
   45    43    45    1
   46    43    46    1
   47    46    47    1
   48    46    48    1
   49    48    49    1
   50    46    50    1
   51    50    51    1
   52    50    52    1
   53    52    53    1
   54    24    54    1
   55    50    54    1
   56    54    55    1
   57    54    56    1
   58    56    57    1
   59    43    58    1
   60    56    58    1
   61    56    59    1
   62    59    60    1
   63    59    61    1
   64    59    62    1
   65    62    63    1
   66    64    65    1
   67    64    66    1
   68    64    67    1
   69    67    68    1
   70    67    69    1
   71    69    70    1
   72    67    71    1
   73    71    72    1
   74    71    73    1
   75    73    74    1
   76    45    75    1
   77    71    75    1
   78    75    76    1
   79    75    77    1
   80    77    78    1
   81    64    79    1
   82    77    79    1
   83    77    80    1
   84    80    81    1
   85    80    82    1
   86    80    83    1
   87    83    84    1
   88    85    86    1
   89    85    87    1
   90    85    88    1
   91    88    89    1
   92    88    90    1
   93    90    91    1
   94    88    92    1
   95    92    93    1
   96    92    94    1
   97    94    95    1
   98    66    96    1
   99    92    96    1
  100    96    97    1
  101    96    98    1
  102    98    99    1
  103    85   100    1
  104    98   100    1
  105    98   101    1
  106   101   102    1
  107   101   103    1
  108   101   104    1
  109   104   105    1
  110   106   107    1
  111    12   108    1
  112   106   108    1
  113   106   109    1
  114   109   110    1
  115   109   111    1
  116   111   112    1
  117   109   113    1
  118   113   114    1
  119   113   115    1
  120   115   116    1
  121    87   117    1
  122   113   117    1
  123   117   118    1
  124   117   119    1
  125   119   120    1
  126   106   121    1
  127   119   121    1
  128   119   122    1
  129   122   123    1
  130   122   124    1
  131   122   125    1
  132   125   126    1
  133   127   128    1
  134   127   129    2
  135   127   130    1
  136   130   131    1
  137   130   132    2
  138   132   133    1
  139   132   134    1
  140   134   135    1
  141   134   136    1
  142   134   137    1
  143   137   138    1
  144   137   139    1
  145   137   140    1
  146   140   141    1
  147   140   142    1
  148   140   143    1
@<TRIPOS>SUBSTRUCTURE
       1 MOL1            1 RESIDUE      1      MOL     
       2 MOL1          143 RESIDUE      1      MOL     
@<SCITEGIC>MOL_PROPERTY
feprocess Rank
SciTegic.value.IntegerValue
134

@<SCITEGIC>MOL_PROPERTY
Conf_Id
SciTegic.value.IntegerValue
597

@<SCITEGIC>MOL_PROPERTY
Probability
SciTegic.value.DoubleValue
0.00

@<SCITEGIC>MOL_PROPERTY
G
SciTegic.value.DoubleValue
502.685

@<SCITEGIC>MOL_PROPERTY
E
SciTegic.value.DoubleValue
318.406

@<SCITEGIC>MOL_PROPERTY
-TS
SciTegic.value.DoubleValue
184.278

@<SCITEGIC>MOL_PROPERTY
U+W
SciTegic.value.DoubleValue
192.318

@<SCITEGIC>MOL_PROPERTY
U
SciTegic.value.DoubleValue
264.370

@<SCITEGIC>MOL_PROPERTY
W
SciTegic.value.DoubleValue
-72.052

@<SCITEGIC>MOL_PROPERTY
W(PB)
SciTegic.value.DoubleValue
-77.935

@<SCITEGIC>MOL_PROPERTY
W(SA)
SciTegic.value.DoubleValue
5.883

@<SCITEGIC>MOL_PROPERTY
Valence
SciTegic.value.DoubleValue
153.656

@<SCITEGIC>MOL_PROPERTY
Coulomb
SciTegic.value.DoubleValue
137.094

@<SCITEGIC>MOL_PROPERTY
VdW
SciTegic.value.DoubleValue
-26.380

@<SCITEGIC>MOL_PROPERTY
VdW6
SciTegic.value.DoubleValue
-186.306

@<SCITEGIC>MOL_PROPERTY
VdW12
SciTegic.value.DoubleValue
159.926

@<SCITEGIC>MOL_PROPERTY
Bond
SciTegic.value.DoubleValue
5.149

@<SCITEGIC>MOL_PROPERTY
Angle
SciTegic.value.DoubleValue
16.000

@<SCITEGIC>MOL_PROPERTY
Pdih
SciTegic.value.DoubleValue
132.493

@<SCITEGIC>MOL_PROPERTY
Idih
SciTegic.value.DoubleValue
0.013

@<SCITEGIC>MOL_PROPERTY
Tether
SciTegic.value.DoubleValue
0.000

@<TRIPOS>MOLECULE
CD_guest-s19_fast_vm2_rndm.mol2 : feprocess host+ligand conformer 135
         143         148           2
SMALL
USER_CHARGES
 
@<TRIPOS>ATOM
       1    C1      16.092940   15.196251   21.198251 C.3        1 MOL1         0.2972
       2    H1      16.025593   14.639072   20.257937 H          1 MOL1         0.0751
       3    O1      14.740088   15.618290   21.538745 O.3        1 MOL1        -0.3740
       4    C2      16.669215   14.240512   22.287692 C.3        1 MOL1         0.1003
       5    H2      16.380460   13.223870   21.991149 H          1 MOL1         0.0783
       6    O2      16.150720   14.513608   23.598139 O.3        1 MOL1        -0.5519
       7    H3      15.422662   15.175692   23.491840 H          1 MOL1         0.3769
       8    C3      18.223582   14.299498   22.371231 C.3        1 MOL1         0.1053
       9    H4      18.491212   15.095668   23.079004 H          1 MOL1         0.0783
      10    O3      18.708581   13.043383   22.858066 O.3        1 MOL1        -0.5519
      11    H5      18.257899   12.904347   23.719221 H          1 MOL1         0.3769
      12    C4      18.892408   14.658063   21.018661 C.3        1 MOL1         0.1018
      13    H6      18.761336   13.800010   20.347752 H          1 MOL1         0.0783
      14    C5      18.259286   15.942755   20.388437 C.3        1 MOL1         0.1043
      15    H7      18.929001   16.785249   20.592203 H          1 MOL1         0.0783
      16    O4      17.006089   16.289108   21.022112 O.3        1 MOL1        -0.3740
      17    C6      18.069449   15.870185   18.845218 C.3        1 MOL1         0.0138
      18    H8      19.043094   16.031061   18.364599 H          1 MOL1         0.0794
      19    H9      17.416459   16.691632   18.525572 H          1 MOL1         0.0794
      20    O5      17.518838   14.623999   18.403985 O.3        1 MOL1        -0.5486
      21    H10     17.428708   14.665148   17.426693 H          1 MOL1         0.3769
      22    C7      14.815802   19.916379   21.874259 C.3        1 MOL1         0.2972
      23    H11     14.402742   20.922723   22.011197 H          1 MOL1         0.0751
      24    O6      16.235654   19.979742   21.612668 O.3        1 MOL1        -0.3740
      25    C8      14.585162   19.095452   23.170454 C.3        1 MOL1         0.1003
      26    H12     13.509183   19.130721   23.385320 H          1 MOL1         0.0783
      27    O7      15.299383   19.679288   24.268504 O.3        1 MOL1        -0.5519
      28    H13     16.219097   19.816390   23.951080 H          1 MOL1         0.3769
      29    C9      14.984500   17.609144   23.007822 C.3        1 MOL1         0.1053
      30    H14     16.070950   17.547988   22.913965 H          1 MOL1         0.0783
      31    O8      14.548754   16.892842   24.166123 O.3        1 MOL1        -0.5519
      32    H15     14.868213   17.420646   24.931225 H          1 MOL1         0.3769
      33    C10     14.336956   17.009021   21.738764 C.3        1 MOL1         0.1018
      34    H16     13.256379   17.007571   21.929105 H          1 MOL1         0.0783
      35    C11     14.567209   17.899421   20.480181 C.3        1 MOL1         0.1043
      36    H17     15.627493   17.925786   20.233204 H          1 MOL1         0.0783
      37    O9      14.152055   19.258755   20.765282 O.3        1 MOL1        -0.3740
      38    C12     13.817947   17.400254   19.220911 C.3        1 MOL1         0.0138
      39    H18     14.318799   16.494060   18.853828 H          1 MOL1         0.0794
      40    H19     13.907255   18.159897   18.433126 H          1 MOL1         0.0794
      41    O10     12.437224   17.119945   19.479274 O.3        1 MOL1        -0.5486
      42    H20     12.402225   16.327424   20.058015 H          1 MOL1         0.3769
      43    C13     18.929588   22.836292   20.033414 C.3        1 MOL1         0.2972
      44    H21     19.356439   23.599807   19.370752 H          1 MOL1         0.0751
      45    O11     19.912136   22.342138   20.966471 O.3        1 MOL1        -0.3740
      46    C14     17.722823   23.411144   20.824047 C.3        1 MOL1         0.1003
      47    H22     17.004206   23.779303   20.080247 H          1 MOL1         0.0783
      48    O12     18.117674   24.508055   21.662988 O.3        1 MOL1        -0.5519
      49    H23     18.877816   24.198120   22.218489 H          1 MOL1         0.3769
      50    C15     17.007475   22.317957   21.660874 C.3        1 MOL1         0.1053
      51    H24     17.685479   21.995259   22.463020 H          1 MOL1         0.0783
      52    O13     15.821278   22.890095   22.218573 O.3        1 MOL1        -0.5519
      53    H25     16.105035   23.752377   22.595652 H          1 MOL1         0.3769
      54    C16     16.666789   21.083041   20.780499 C.3        1 MOL1         0.1018
      55    H26     15.886218   21.363648   20.061224 H          1 MOL1         0.0783
      56    C17     17.922157   20.613570   20.002342 C.3        1 MOL1         0.1043
      57    H27     18.666874   20.267153   20.728305 H          1 MOL1         0.0783
      58    O14     18.460028   21.721953   19.247910 O.3        1 MOL1        -0.3740
      59    C18     17.657409   19.446493   19.028810 C.3        1 MOL1         0.0138
      60    H28     17.596137   18.535088   19.630297 H          1 MOL1         0.0794
      61    H29     18.520916   19.338113   18.358945 H          1 MOL1         0.0794
      62    O15     16.453219   19.612283   18.269854 O.3        1 MOL1        -0.5486
      63    H30     15.710130   19.687452   18.907050 H          1 MOL1         0.3769
      64    C19     23.885403   22.990230   22.052836 C.3        1 MOL1         0.2972
      65    H31     24.887149   23.398847   22.235356 H          1 MOL1         0.0751
      66    O16     23.802329   21.605964   22.429420 O.3        1 MOL1        -0.3740
      67    C20     22.831564   23.759333   22.890829 C.3        1 MOL1         0.1003
      68    H32     22.840048   24.799543   22.539925 H          1 MOL1         0.0783
      69    O17     23.149204   23.745351   24.294405 O.3        1 MOL1        -0.5519
      70    H33     23.214592   22.808308   24.604751 H          1 MOL1         0.3769
      71    C21     21.413925   23.190288   22.640740 C.3        1 MOL1         0.1053
      72    H34     21.382820   22.157357   23.008746 H          1 MOL1         0.0783
      73    O18     20.454335   23.990184   23.339326 O.3        1 MOL1        -0.5519
      74    H35     20.846022   24.140798   24.228524 H          1 MOL1         0.3769
      75    C22     21.087314   23.165092   21.128611 C.3        1 MOL1         0.1018
      76    H36     20.911365   24.197724   20.798176 H          1 MOL1         0.0783
      77    C23     22.238145   22.532978   20.293224 C.3        1 MOL1         0.1043
      78    H37     22.263961   21.460201   20.512111 H          1 MOL1         0.0783
      79    O19     23.512562   23.121262   20.664639 O.3        1 MOL1        -0.3740
      80    C24     22.057236   22.678884   18.763883 C.3        1 MOL1         0.0138
      81    H38     21.235619   22.022056   18.446784 H          1 MOL1         0.0794
      82    H39     22.967971   22.318577   18.267530 H          1 MOL1         0.0794
      83    O20     21.779969   24.031663   18.379709 O.3        1 MOL1        -0.5486
      84    H40     21.756079   24.063293   17.398617 H          1 MOL1         0.3769
      85    C25     25.176133   17.843596   22.309538 C.3        1 MOL1         0.2972
      86    H41     25.692033   16.878213   22.286536 H          1 MOL1         0.0751
      87    O21     23.737183   17.671718   22.211928 O.3        1 MOL1        -0.3740
      88    C26     25.542598   18.573420   23.622628 C.3        1 MOL1         0.1003
      89    H42     26.630323   18.719840   23.621098 H          1 MOL1         0.0783
      90    O22     25.172789   17.792145   24.772539 O.3        1 MOL1        -0.5519
      91    H43     24.480027   18.306951   25.266206 H          1 MOL1         0.3769
      92    C27     24.875686   19.961311   23.676730 C.3        1 MOL1         0.1053
      93    H44     23.805492   19.776190   23.825329 H          1 MOL1         0.0783
      94    O23     25.415235   20.721317   24.767040 O.3        1 MOL1        -0.5519
      95    H45     24.705852   20.771556   25.460219 H          1 MOL1         0.3769
      96    C28     24.997077   20.796427   22.379058 C.3        1 MOL1         0.1018
      97    H46     25.909543   21.402447   22.438860 H          1 MOL1         0.0783
      98    C29     24.978533   19.954278   21.065906 C.3        1 MOL1         0.1043
      99    H47     23.934147   19.763028   20.817263 H          1 MOL1         0.0783
     100    O24     25.645882   18.678985   21.231461 O.3        1 MOL1        -0.3740
     101    C30     25.611786   20.656036   19.839372 C.3        1 MOL1         0.0138
     102    H48     24.961441   21.475842   19.513694 H          1 MOL1         0.0794
     103    H49     25.644401   19.933191   19.013318 H          1 MOL1         0.0794
     104    O25     26.930889   21.150370   20.104217 O.3        1 MOL1        -0.5486
     105    H50     26.844327   21.987615   20.606751 H          1 MOL1         0.3769
     106    C31     21.134388   15.049842   20.097279 C.3        1 MOL1         0.2972
     107    H51     20.709973   14.504385   19.244504 H          1 MOL1         0.0751
     108    O26     20.307703   14.869311   21.269816 O.3        1 MOL1        -0.3740
     109    C32     22.561736   14.516113   20.382580 C.3        1 MOL1         0.1003
     110    H52     23.107790   14.549459   19.430631 H          1 MOL1         0.0783
     111    O27     22.497845   13.156676   20.838549 O.3        1 MOL1        -0.5519
     112    H53     21.769938   13.129221   21.501347 H          1 MOL1         0.3769
     113    C33     23.350598   15.380531   21.400717 C.3        1 MOL1         0.1053
     114    H54     22.917237   15.216531   22.396988 H          1 MOL1         0.0783
     115    O28     24.707462   14.927275   21.376552 O.3        1 MOL1        -0.5519
     116    H55     24.653739   13.948002   21.442905 H          1 MOL1         0.3769
     117    C34     23.249248   16.902267   21.082493 C.3        1 MOL1         0.1018
     118    H56     23.815146   17.135199   20.170837 H          1 MOL1         0.0783
     119    C35     21.760953   17.281213   20.862288 C.3        1 MOL1         0.1043
     120    H57     21.224830   17.091134   21.798879 H          1 MOL1         0.0783
     121    O29     21.223122   16.458360   19.800213 O.3        1 MOL1        -0.3740
     122    C36     21.501134   18.750942   20.471552 C.3        1 MOL1         0.0138
     123    H58     21.855529   19.402692   21.280704 H          1 MOL1         0.0794
     124    H59     20.417862   18.899588   20.390775 H          1 MOL1         0.0794
     125    O30     22.131615   19.081720   19.230360 O.3        1 MOL1        -0.5486
     126    H60     21.870643   18.378739   18.596686 H          1 MOL1         0.3769
     127    C1      22.555241   20.395340   25.994111 C.2        1 MOL1         0.6173
     128    O1      23.107246   19.321002   26.149899 O.co2      1 MOL1        -0.6755
     129    O2      23.083810   21.447755   26.293220 O.co2      1 MOL1        -0.6755
     130    C2      21.312617   20.481154   25.186177 C.2        1 MOL1        -0.1504
     131    H1      20.872785   21.471259   25.099763 H          1 MOL1         0.0814
     132    C3      20.758539   19.431464   24.542737 C.2        1 MOL1        -0.1394
     133    H2      21.206832   18.439839   24.604482 H          1 MOL1         0.0817
     134    C4      19.530702   19.559114   23.668892 C.3        1 MOL1        -0.1849
     135    H3      19.828780   19.965520   22.695261 H          1 MOL1         0.0736
     136    H4      18.829755   20.284510   24.102959 H          1 MOL1         0.0736
     137    C5      18.813421   18.210192   23.463155 C.3        1 MOL1        -0.1866
     138    H5      18.036689   18.339079   22.702333 H          1 MOL1         0.0738
     139    H6      19.512744   17.466145   23.066301 H          1 MOL1         0.0738
     140    C6      18.193243   17.672568   24.770328 C.3        1 MOL1        -0.2879
     141    H7      17.634845   16.746491   24.586470 H          1 MOL1         0.0750
     142    H8      18.972042   17.450848   25.511115 H          1 MOL1         0.0750
     143    H9      17.505985   18.402135   25.214553 H          1 MOL1         0.0750
@<TRIPOS>BOND
    1     1     2    1
    2     1     3    1
    3     1     4    1
    4     4     5    1
    5     4     6    1
    6     6     7    1
    7     4     8    1
    8     8     9    1
    9     8    10    1
   10    10    11    1
   11     8    12    1
   12    12    13    1
   13    12    14    1
   14    14    15    1
   15     1    16    1
   16    14    16    1
   17    14    17    1
   18    17    18    1
   19    17    19    1
   20    17    20    1
   21    20    21    1
   22    22    23    1
   23    22    24    1
   24    22    25    1
   25    25    26    1
   26    25    27    1
   27    27    28    1
   28    25    29    1
   29    29    30    1
   30    29    31    1
   31    31    32    1
   32     3    33    1
   33    29    33    1
   34    33    34    1
   35    33    35    1
   36    35    36    1
   37    22    37    1
   38    35    37    1
   39    35    38    1
   40    38    39    1
   41    38    40    1
   42    38    41    1
   43    41    42    1
   44    43    44    1
   45    43    45    1
   46    43    46    1
   47    46    47    1
   48    46    48    1
   49    48    49    1
   50    46    50    1
   51    50    51    1
   52    50    52    1
   53    52    53    1
   54    24    54    1
   55    50    54    1
   56    54    55    1
   57    54    56    1
   58    56    57    1
   59    43    58    1
   60    56    58    1
   61    56    59    1
   62    59    60    1
   63    59    61    1
   64    59    62    1
   65    62    63    1
   66    64    65    1
   67    64    66    1
   68    64    67    1
   69    67    68    1
   70    67    69    1
   71    69    70    1
   72    67    71    1
   73    71    72    1
   74    71    73    1
   75    73    74    1
   76    45    75    1
   77    71    75    1
   78    75    76    1
   79    75    77    1
   80    77    78    1
   81    64    79    1
   82    77    79    1
   83    77    80    1
   84    80    81    1
   85    80    82    1
   86    80    83    1
   87    83    84    1
   88    85    86    1
   89    85    87    1
   90    85    88    1
   91    88    89    1
   92    88    90    1
   93    90    91    1
   94    88    92    1
   95    92    93    1
   96    92    94    1
   97    94    95    1
   98    66    96    1
   99    92    96    1
  100    96    97    1
  101    96    98    1
  102    98    99    1
  103    85   100    1
  104    98   100    1
  105    98   101    1
  106   101   102    1
  107   101   103    1
  108   101   104    1
  109   104   105    1
  110   106   107    1
  111    12   108    1
  112   106   108    1
  113   106   109    1
  114   109   110    1
  115   109   111    1
  116   111   112    1
  117   109   113    1
  118   113   114    1
  119   113   115    1
  120   115   116    1
  121    87   117    1
  122   113   117    1
  123   117   118    1
  124   117   119    1
  125   119   120    1
  126   106   121    1
  127   119   121    1
  128   119   122    1
  129   122   123    1
  130   122   124    1
  131   122   125    1
  132   125   126    1
  133   127   128    1
  134   127   129    2
  135   127   130    1
  136   130   131    1
  137   130   132    2
  138   132   133    1
  139   132   134    1
  140   134   135    1
  141   134   136    1
  142   134   137    1
  143   137   138    1
  144   137   139    1
  145   137   140    1
  146   140   141    1
  147   140   142    1
  148   140   143    1
@<TRIPOS>SUBSTRUCTURE
       1 MOL1            1 RESIDUE      1      MOL     
       2 MOL1          143 RESIDUE      1      MOL     
@<SCITEGIC>MOL_PROPERTY
feprocess Rank
SciTegic.value.IntegerValue
135

@<SCITEGIC>MOL_PROPERTY
Conf_Id
SciTegic.value.IntegerValue
294

@<SCITEGIC>MOL_PROPERTY
Probability
SciTegic.value.DoubleValue
0.00

@<SCITEGIC>MOL_PROPERTY
G
SciTegic.value.DoubleValue
502.757

@<SCITEGIC>MOL_PROPERTY
E
SciTegic.value.DoubleValue
319.232

@<SCITEGIC>MOL_PROPERTY
-TS
SciTegic.value.DoubleValue
183.525

@<SCITEGIC>MOL_PROPERTY
U+W
SciTegic.value.DoubleValue
193.144

@<SCITEGIC>MOL_PROPERTY
U
SciTegic.value.DoubleValue
272.273

@<SCITEGIC>MOL_PROPERTY
W
SciTegic.value.DoubleValue
-79.130

@<SCITEGIC>MOL_PROPERTY
W(PB)
SciTegic.value.DoubleValue
-85.091

@<SCITEGIC>MOL_PROPERTY
W(SA)
SciTegic.value.DoubleValue
5.961

@<SCITEGIC>MOL_PROPERTY
Valence
SciTegic.value.DoubleValue
148.508

@<SCITEGIC>MOL_PROPERTY
Coulomb
SciTegic.value.DoubleValue
147.235

@<SCITEGIC>MOL_PROPERTY
VdW
SciTegic.value.DoubleValue
-23.470

@<SCITEGIC>MOL_PROPERTY
VdW6
SciTegic.value.DoubleValue
-185.573

@<SCITEGIC>MOL_PROPERTY
VdW12
SciTegic.value.DoubleValue
162.103

@<SCITEGIC>MOL_PROPERTY
Bond
SciTegic.value.DoubleValue
5.797

@<SCITEGIC>MOL_PROPERTY
Angle
SciTegic.value.DoubleValue
21.029

@<SCITEGIC>MOL_PROPERTY
Pdih
SciTegic.value.DoubleValue
121.581

@<SCITEGIC>MOL_PROPERTY
Idih
SciTegic.value.DoubleValue
0.102

@<SCITEGIC>MOL_PROPERTY
Tether
SciTegic.value.DoubleValue
0.000

@<TRIPOS>MOLECULE
CD_guest-s19_fast_vm2_rndm.mol2 : feprocess host+ligand conformer 136
         143         148           2
SMALL
USER_CHARGES
 
@<TRIPOS>ATOM
       1    C1      16.170478   15.060680   21.746996 C.3        1 MOL1         0.2972
       2    H1      15.087879   14.907228   21.841962 H          1 MOL1         0.0751
       3    O1      16.519145   16.455853   21.804188 O.3        1 MOL1        -0.3740
       4    C2      16.902486   14.347876   22.908106 C.3        1 MOL1         0.1003
       5    H2      16.683012   13.274834   22.833770 H          1 MOL1         0.0783
       6    O2      16.434194   14.846120   24.171716 O.3        1 MOL1        -0.5519
       7    H3      16.145359   15.779943   24.020635 H          1 MOL1         0.3769
       8    C3      18.431336   14.537131   22.784062 C.3        1 MOL1         0.1053
       9    H4      18.659037   15.598418   22.955443 H          1 MOL1         0.0783
      10    O3      19.096870   13.736347   23.767418 O.3        1 MOL1        -0.5519
      11    H5      18.617951   13.915630   24.607054 H          1 MOL1         0.3769
      12    C4      18.935838   14.155202   21.371817 C.3        1 MOL1         0.1018
      13    H6      18.963740   13.060136   21.294801 H          1 MOL1         0.0783
      14    C5      18.065372   14.756729   20.231626 C.3        1 MOL1         0.1043
      15    H7      18.257830   15.837037   20.199084 H          1 MOL1         0.0783
      16    O4      16.657583   14.526253   20.499344 O.3        1 MOL1        -0.3740
      17    C6      18.392609   14.197006   18.827007 C.3        1 MOL1         0.0138
      18    H8      19.360894   14.604630   18.506664 H          1 MOL1         0.0794
      19    H9      17.637862   14.565035   18.119182 H          1 MOL1         0.0794
      20    O5      18.434462   12.764351   18.812216 O.3        1 MOL1        -0.5486
      21    H10     18.576311   12.480543   17.882933 H          1 MOL1         0.3769
      22    C7      14.833940   20.223160   21.192545 C.3        1 MOL1         0.2972
      23    H11     14.133272   21.038209   20.969975 H          1 MOL1         0.0751
      24    O6      16.158456   20.721047   21.454189 O.3        1 MOL1        -0.3740
      25    C8      14.362350   19.463433   22.456697 C.3        1 MOL1         0.1003
      26    H12     13.356688   19.072439   22.254556 H          1 MOL1         0.0783
      27    O7      14.309500   20.354414   23.582339 O.3        1 MOL1        -0.5519
      28    H13     14.964932   21.072632   23.404901 H          1 MOL1         0.3769
      29    C9      15.292400   18.265009   22.755900 C.3        1 MOL1         0.1053
      30    H14     16.280454   18.655690   23.037225 H          1 MOL1         0.0783
      31    O8      14.750812   17.492000   23.832826 O.3        1 MOL1        -0.5519
      32    H15     14.499377   18.151457   24.517325 H          1 MOL1         0.3769
      33    C10     15.460748   17.378659   21.499780 C.3        1 MOL1         0.1018
      34    H16     14.508579   16.868724   21.302636 H          1 MOL1         0.0783
      35    C11     15.864836   18.213222   20.252460 C.3        1 MOL1         0.1043
      36    H17     16.866425   18.626074   20.429623 H          1 MOL1         0.0783
      37    O9      14.913668   19.297000   20.087037 O.3        1 MOL1        -0.3740
      38    C12     15.930231   17.418503   18.922461 C.3        1 MOL1         0.0138
      39    H18     16.934576   16.990340   18.819798 H          1 MOL1         0.0794
      40    H19     15.804456   18.121631   18.088539 H          1 MOL1         0.0794
      41    O10     14.952603   16.374976   18.838863 O.3        1 MOL1        -0.5486
      42    H20     15.318735   15.606384   19.334999 H          1 MOL1         0.3769
      43    C13     18.594617   24.003120   20.644926 C.3        1 MOL1         0.2972
      44    H21     19.017008   24.944721   20.271010 H          1 MOL1         0.0751
      45    O11     19.562769   23.228346   21.370566 O.3        1 MOL1        -0.3740
      46    C14     17.419750   24.268153   21.619747 C.3        1 MOL1         0.1003
      47    H22     16.651739   24.828839   21.071372 H          1 MOL1         0.0783
      48    O12     17.861230   25.039787   22.749442 O.3        1 MOL1        -0.5519
      49    H23     18.699609   24.624981   23.075968 H          1 MOL1         0.3769
      50    C15     16.797667   22.931312   22.095489 C.3        1 MOL1         0.1053
      51    H24     17.535935   22.413079   22.723520 H          1 MOL1         0.0783
      52    O13     15.615134   23.194854   22.858782 O.3        1 MOL1        -0.5519
      53    H25     15.865105   23.915557   23.478826 H          1 MOL1         0.3769
      54    C16     16.458545   22.012019   20.896373 C.3        1 MOL1         0.1018
      55    H26     15.600548   22.443105   20.364011 H          1 MOL1         0.0783
      56    C17     17.651135   21.869265   19.909083 C.3        1 MOL1         0.1043
      57    H27     18.461873   21.325522   20.412455 H          1 MOL1         0.0783
      58    O14     18.104194   23.197782   19.551418 O.3        1 MOL1        -0.3740
      59    C18     17.335573   21.098429   18.601308 C.3        1 MOL1         0.0138
      60    H28     17.502020   20.029236   18.776222 H          1 MOL1         0.0794
      61    H29     18.060139   21.403604   17.834682 H          1 MOL1         0.0794
      62    O15     15.998044   21.305312   18.130510 O.3        1 MOL1        -0.5486
      63    H30     15.418670   20.707443   18.657199 H          1 MOL1         0.3769
      64    C19     23.603294   22.877817   22.062380 C.3        1 MOL1         0.2972
      65    H31     24.680069   23.025339   22.215099 H          1 MOL1         0.0751
      66    O16     23.245833   21.484821   22.100739 O.3        1 MOL1        -0.3740
      67    C20     22.813086   23.593986   23.182584 C.3        1 MOL1         0.1003
      68    H32     23.044962   24.665337   23.124157 H          1 MOL1         0.0783
      69    O17     23.205776   23.088181   24.468691 O.3        1 MOL1        -0.5519
      70    H33     23.481958   22.148528   24.332905 H          1 MOL1         0.3769
      71    C21     21.292196   23.417601   22.972347 C.3        1 MOL1         0.1053
      72    H34     21.049343   22.357746   23.120688 H          1 MOL1         0.0783
      73    O18     20.576384   24.215638   23.922205 O.3        1 MOL1        -0.5519
      74    H35     21.002475   24.022431   24.786715 H          1 MOL1         0.3769
      75    C22     20.866657   23.803903   21.536717 C.3        1 MOL1         0.1018
      76    H36     20.850888   24.898949   21.457291 H          1 MOL1         0.0783
      77    C23     21.792038   23.191253   20.448123 C.3        1 MOL1         0.1043
      78    H37     21.591430   22.111921   20.412208 H          1 MOL1         0.0783
      79    O19     23.184922   23.414710   20.790942 O.3        1 MOL1        -0.3740
      80    C24     21.547372   23.748127   19.025550 C.3        1 MOL1         0.0138
      81    H38     20.597599   23.343463   18.651337 H          1 MOL1         0.0794
      82    H39     22.339655   23.375105   18.362810 H          1 MOL1         0.0794
      83    O20     21.512590   25.180976   19.004122 O.3        1 MOL1        -0.5486
      84    H40     21.420206   25.462074   18.067857 H          1 MOL1         0.3769
      85    C25     24.974002   17.714578   21.529499 C.3        1 MOL1         0.2972
      86    H41     25.704328   16.919695   21.330831 H          1 MOL1         0.0751
      87    O21     23.652181   17.177491   21.716419 O.3        1 MOL1        -0.3740
      88    C26     25.363925   18.463605   22.828450 C.3        1 MOL1         0.1003
      89    H42     26.377233   18.862808   22.691132 H          1 MOL1         0.0783
      90    O22     25.355770   17.558052   23.943245 O.3        1 MOL1        -0.5519
      91    H43     24.683387   16.865603   23.734626 H          1 MOL1         0.3769
      92    C27     24.411459   19.653476   23.089941 C.3        1 MOL1         0.1053
      93    H44     23.412689   19.252411   23.310979 H          1 MOL1         0.0783
      94    O23     24.888004   20.417251   24.203754 O.3        1 MOL1        -0.5519
      95    H45     25.088335   19.753625   24.900346 H          1 MOL1         0.3769
      96    C28     24.306175   20.552149   21.835971 C.3        1 MOL1         0.1018
      97    H46     25.270073   21.054609   21.681149 H          1 MOL1         0.0783
      98    C29     23.951113   19.720106   20.572666 C.3        1 MOL1         0.1043
      99    H47     22.951216   19.289604   20.716526 H          1 MOL1         0.0783
     100    O24     24.927401   18.655250   20.434525 O.3        1 MOL1        -0.3740
     101    C30     23.914402   20.515509   19.242492 C.3        1 MOL1         0.0138
     102    H48     22.904539   20.922010   19.107234 H          1 MOL1         0.0794
     103    H49     24.081766   19.816396   18.412629 H          1 MOL1         0.0794
     104    O25     24.876721   21.575054   19.191151 O.3        1 MOL1        -0.5486
     105    H50     24.491297   22.329920   19.694330 H          1 MOL1         0.3769
     106    C31     21.253966   13.958944   20.608220 C.3        1 MOL1         0.2972
     107    H51     20.845295   13.036636   20.175576 H          1 MOL1         0.0751
     108    O26     20.243161   14.738240   21.270371 O.3        1 MOL1        -0.3740
     109    C32     22.346360   13.644995   21.661092 C.3        1 MOL1         0.1003
     110    H52     23.144582   13.086897   21.154813 H          1 MOL1         0.0783
     111    O27     21.810567   12.847871   22.730471 O.3        1 MOL1        -0.5519
     112    H53     20.967118   13.278212   23.022285 H          1 MOL1         0.3769
     113    C33     22.953302   14.955394   22.222083 C.3        1 MOL1         0.1053
     114    H54     22.178367   15.466435   22.810618 H          1 MOL1         0.0783
     115    O28     24.070312   14.645177   23.062369 O.3        1 MOL1        -0.5519
     116    H55     23.761061   13.914174   23.642023 H          1 MOL1         0.3769
     117    C34     23.396635   15.909663   21.084625 C.3        1 MOL1         0.1018
     118    H56     24.296030   15.491921   20.613483 H          1 MOL1         0.0783
     119    C35     22.288540   16.090051   20.007616 C.3        1 MOL1         0.1043
     120    H57     21.449863   16.627084   20.464168 H          1 MOL1         0.0783
     121    O29     21.846071   14.779498   19.579502 O.3        1 MOL1        -0.3740
     122    C36     22.696926   16.893763   18.747224 C.3        1 MOL1         0.0138
     123    H58     22.501200   17.956892   18.932032 H          1 MOL1         0.0794
     124    H59     22.038533   16.598404   17.919363 H          1 MOL1         0.0794
     125    O30     24.068284   16.707519   18.377677 O.3        1 MOL1        -0.5486
     126    H60     24.598898   17.298549   18.960888 H          1 MOL1         0.3769
     127    C1      19.841812   18.828537   19.905908 C.2        1 MOL1         0.6173
     128    O1      19.213688   18.117192   19.145379 O.co2      1 MOL1        -0.6755
     129    O2      20.533287   19.762171   19.540370 O.co2      1 MOL1        -0.6755
     130    C2      19.767381   18.494851   21.353244 C.2        1 MOL1        -0.1504
     131    H1      19.158668   17.631878   21.610104 H          1 MOL1         0.0814
     132    C3      20.419714   19.179705   22.317501 C.2        1 MOL1        -0.1394
     133    H2      21.032499   20.043251   22.065161 H          1 MOL1         0.0817
     134    C4      20.375166   18.797942   23.780502 C.3        1 MOL1        -0.1849
     135    H3      21.118001   18.012328   23.973164 H          1 MOL1         0.0736
     136    H4      19.393323   18.371270   24.026500 H          1 MOL1         0.0736
     137    C5      20.651680   20.007480   24.696607 C.3        1 MOL1        -0.1866
     138    H5      21.628824   20.444083   24.450681 H          1 MOL1         0.0738
     139    H6      19.896540   20.784885   24.516012 H          1 MOL1         0.0738
     140    C6      20.634218   19.610117   26.185497 C.3        1 MOL1        -0.2879
     141    H7      21.402262   18.855131   26.398204 H          1 MOL1         0.0750
     142    H8      20.832165   20.483649   26.819957 H          1 MOL1         0.0750
     143    H9      19.657727   19.197078   26.469935 H          1 MOL1         0.0750
@<TRIPOS>BOND
    1     1     2    1
    2     1     3    1
    3     1     4    1
    4     4     5    1
    5     4     6    1
    6     6     7    1
    7     4     8    1
    8     8     9    1
    9     8    10    1
   10    10    11    1
   11     8    12    1
   12    12    13    1
   13    12    14    1
   14    14    15    1
   15     1    16    1
   16    14    16    1
   17    14    17    1
   18    17    18    1
   19    17    19    1
   20    17    20    1
   21    20    21    1
   22    22    23    1
   23    22    24    1
   24    22    25    1
   25    25    26    1
   26    25    27    1
   27    27    28    1
   28    25    29    1
   29    29    30    1
   30    29    31    1
   31    31    32    1
   32     3    33    1
   33    29    33    1
   34    33    34    1
   35    33    35    1
   36    35    36    1
   37    22    37    1
   38    35    37    1
   39    35    38    1
   40    38    39    1
   41    38    40    1
   42    38    41    1
   43    41    42    1
   44    43    44    1
   45    43    45    1
   46    43    46    1
   47    46    47    1
   48    46    48    1
   49    48    49    1
   50    46    50    1
   51    50    51    1
   52    50    52    1
   53    52    53    1
   54    24    54    1
   55    50    54    1
   56    54    55    1
   57    54    56    1
   58    56    57    1
   59    43    58    1
   60    56    58    1
   61    56    59    1
   62    59    60    1
   63    59    61    1
   64    59    62    1
   65    62    63    1
   66    64    65    1
   67    64    66    1
   68    64    67    1
   69    67    68    1
   70    67    69    1
   71    69    70    1
   72    67    71    1
   73    71    72    1
   74    71    73    1
   75    73    74    1
   76    45    75    1
   77    71    75    1
   78    75    76    1
   79    75    77    1
   80    77    78    1
   81    64    79    1
   82    77    79    1
   83    77    80    1
   84    80    81    1
   85    80    82    1
   86    80    83    1
   87    83    84    1
   88    85    86    1
   89    85    87    1
   90    85    88    1
   91    88    89    1
   92    88    90    1
   93    90    91    1
   94    88    92    1
   95    92    93    1
   96    92    94    1
   97    94    95    1
   98    66    96    1
   99    92    96    1
  100    96    97    1
  101    96    98    1
  102    98    99    1
  103    85   100    1
  104    98   100    1
  105    98   101    1
  106   101   102    1
  107   101   103    1
  108   101   104    1
  109   104   105    1
  110   106   107    1
  111    12   108    1
  112   106   108    1
  113   106   109    1
  114   109   110    1
  115   109   111    1
  116   111   112    1
  117   109   113    1
  118   113   114    1
  119   113   115    1
  120   115   116    1
  121    87   117    1
  122   113   117    1
  123   117   118    1
  124   117   119    1
  125   119   120    1
  126   106   121    1
  127   119   121    1
  128   119   122    1
  129   122   123    1
  130   122   124    1
  131   122   125    1
  132   125   126    1
  133   127   128    1
  134   127   129    2
  135   127   130    1
  136   130   131    1
  137   130   132    2
  138   132   133    1
  139   132   134    1
  140   134   135    1
  141   134   136    1
  142   134   137    1
  143   137   138    1
  144   137   139    1
  145   137   140    1
  146   140   141    1
  147   140   142    1
  148   140   143    1
@<TRIPOS>SUBSTRUCTURE
       1 MOL1            1 RESIDUE      1      MOL     
       2 MOL1          143 RESIDUE      1      MOL     
@<SCITEGIC>MOL_PROPERTY
feprocess Rank
SciTegic.value.IntegerValue
136

@<SCITEGIC>MOL_PROPERTY
Conf_Id
SciTegic.value.IntegerValue
145

@<SCITEGIC>MOL_PROPERTY
Probability
SciTegic.value.DoubleValue
0.00

@<SCITEGIC>MOL_PROPERTY
G
SciTegic.value.DoubleValue
502.772

@<SCITEGIC>MOL_PROPERTY
E
SciTegic.value.DoubleValue
322.989

@<SCITEGIC>MOL_PROPERTY
-TS
SciTegic.value.DoubleValue
179.783

@<SCITEGIC>MOL_PROPERTY
U+W
SciTegic.value.DoubleValue
196.901

@<SCITEGIC>MOL_PROPERTY
U
SciTegic.value.DoubleValue
263.175

@<SCITEGIC>MOL_PROPERTY
W
SciTegic.value.DoubleValue
-66.274

@<SCITEGIC>MOL_PROPERTY
W(PB)
SciTegic.value.DoubleValue
-72.280

@<SCITEGIC>MOL_PROPERTY
W(SA)
SciTegic.value.DoubleValue
6.006

@<SCITEGIC>MOL_PROPERTY
Valence
SciTegic.value.DoubleValue
150.262

@<SCITEGIC>MOL_PROPERTY
Coulomb
SciTegic.value.DoubleValue
141.102

@<SCITEGIC>MOL_PROPERTY
VdW
SciTegic.value.DoubleValue
-28.189

@<SCITEGIC>MOL_PROPERTY
VdW6
SciTegic.value.DoubleValue
-179.647

@<SCITEGIC>MOL_PROPERTY
VdW12
SciTegic.value.DoubleValue
151.458

@<SCITEGIC>MOL_PROPERTY
Bond
SciTegic.value.DoubleValue
4.242

@<SCITEGIC>MOL_PROPERTY
Angle
SciTegic.value.DoubleValue
12.804

@<SCITEGIC>MOL_PROPERTY
Pdih
SciTegic.value.DoubleValue
133.212

@<SCITEGIC>MOL_PROPERTY
Idih
SciTegic.value.DoubleValue
0.003

@<SCITEGIC>MOL_PROPERTY
Tether
SciTegic.value.DoubleValue
0.000

@<TRIPOS>MOLECULE
CD_guest-s19_fast_vm2_rndm.mol2 : feprocess host+ligand conformer 137
         143         148           2
SMALL
USER_CHARGES
 
@<TRIPOS>ATOM
       1    C1      16.225010   15.130138   21.224208 C.3        1 MOL1         0.2972
       2    H1      15.158697   14.964600   21.024764 H          1 MOL1         0.0751
       3    O1      16.503710   16.506723   21.540853 O.3        1 MOL1        -0.3740
       4    C2      16.671607   14.274462   22.435941 C.3        1 MOL1         0.1003
       5    H2      16.486792   13.221707   22.185802 H          1 MOL1         0.0783
       6    O2      15.914436   14.625107   23.605574 O.3        1 MOL1        -0.5519
       7    H3      15.709771   15.591785   23.539300 H          1 MOL1         0.3769
       8    C3      18.185922   14.445827   22.699846 C.3        1 MOL1         0.1053
       9    H4      18.360708   15.478391   23.032116 H          1 MOL1         0.0783
      10    O3      18.604732   13.532550   23.719525 O.3        1 MOL1        -0.5519
      11    H5      17.922600   13.608762   24.423688 H          1 MOL1         0.3769
      12    C4      18.999104   14.206591   21.404997 C.3        1 MOL1         0.1018
      13    H6      18.966456   13.137059   21.158883 H          1 MOL1         0.0783
      14    C5      18.444091   15.028286   20.208576 C.3        1 MOL1         0.1043
      15    H7      18.599916   16.093465   20.425515 H          1 MOL1         0.0783
      16    O4      17.023474   14.766268   20.076420 O.3        1 MOL1        -0.3740
      17    C6      19.130596   14.743252   18.846816 C.3        1 MOL1         0.0138
      18    H8      19.971769   15.437492   18.729103 H          1 MOL1         0.0794
      19    H9      18.418982   14.970401   18.041837 H          1 MOL1         0.0794
      20    O5      19.602204   13.396868   18.718378 O.3        1 MOL1        -0.5486
      21    H10     20.430835   13.330960   19.247734 H          1 MOL1         0.3769
      22    C7      14.875712   20.332393   21.090704 C.3        1 MOL1         0.2972
      23    H11     14.186133   21.159375   20.877096 H          1 MOL1         0.0751
      24    O6      16.177125   20.824080   21.461242 O.3        1 MOL1        -0.3740
      25    C8      14.297428   19.461472   22.238883 C.3        1 MOL1         0.1003
      26    H12     13.332086   19.078011   21.883819 H          1 MOL1         0.0783
      27    O7      14.065446   20.220218   23.438249 O.3        1 MOL1        -0.5519
      28    H13     14.887999   20.714235   23.684008 H          1 MOL1         0.3769
      29    C9      15.197196   18.239517   22.524462 C.3        1 MOL1         0.1053
      30    H14     16.156482   18.597711   22.916818 H          1 MOL1         0.0783
      31    O8      14.561279   17.387458   23.483611 O.3        1 MOL1        -0.5519
      32    H15     14.219165   17.996118   24.176075 H          1 MOL1         0.3769
      33    C10     15.471338   17.455084   21.222259 C.3        1 MOL1         0.1018
      34    H16     14.540039   16.967392   20.905542 H          1 MOL1         0.0783
      35    C11     15.982768   18.389263   20.091691 C.3        1 MOL1         0.1043
      36    H17     16.958807   18.779348   20.402716 H          1 MOL1         0.0783
      37    O9      15.053421   19.493833   19.924320 O.3        1 MOL1        -0.3740
      38    C12     16.193178   17.701164   18.718727 C.3        1 MOL1         0.0138
      39    H18     17.194128   17.251237   18.705871 H          1 MOL1         0.0794
      40    H19     16.179658   18.469526   17.934346 H          1 MOL1         0.0794
      41    O10     15.214959   16.694869   18.437129 O.3        1 MOL1        -0.5486
      42    H20     15.550046   15.858735   18.832933 H          1 MOL1         0.3769
      43    C13     18.575941   24.230156   21.110831 C.3        1 MOL1         0.2972
      44    H21     18.995303   25.199569   20.813634 H          1 MOL1         0.0751
      45    O11     19.455901   23.538018   22.020607 O.3        1 MOL1        -0.3740
      46    C14     17.201607   24.442827   21.799967 C.3        1 MOL1         0.1003
      47    H22     16.556865   24.966114   21.082532 H          1 MOL1         0.0783
      48    O12     17.339041   25.250708   22.983176 O.3        1 MOL1        -0.5519
      49    H23     17.426205   24.638606   23.760223 H          1 MOL1         0.3769
      50    C15     16.541620   23.084889   22.133450 C.3        1 MOL1         0.1053
      51    H24     17.177230   22.600421   22.875087 H          1 MOL1         0.0783
      52    O13     15.215970   23.275761   22.643966 O.3        1 MOL1        -0.5519
      53    H25     15.255267   23.020379   23.602162 H          1 MOL1         0.3769
      54    C16     16.513684   22.122917   20.927922 C.3        1 MOL1         0.1018
      55    H26     15.772624   22.482566   20.202003 H          1 MOL1         0.0783
      56    C17     17.906456   22.035355   20.247608 C.3        1 MOL1         0.1043
      57    H27     18.602807   21.555650   20.946102 H          1 MOL1         0.0783
      58    O14     18.364929   23.378991   19.958697 O.3        1 MOL1        -0.3740
      59    C18     17.943361   21.209618   18.936320 C.3        1 MOL1         0.0138
      60    H28     18.147054   20.162374   19.190065 H          1 MOL1         0.0794
      61    H29     18.790150   21.556457   18.329255 H          1 MOL1         0.0794
      62    O15     16.730200   21.295705   18.179395 O.3        1 MOL1        -0.5486
      63    H30     16.043021   20.787863   18.670919 H          1 MOL1         0.3769
      64    C19     23.513597   22.688260   22.071117 C.3        1 MOL1         0.2972
      65    H31     24.610358   22.708012   22.118721 H          1 MOL1         0.0751
      66    O16     23.022050   21.357130   21.829434 O.3        1 MOL1        -0.3740
      67    C20     22.935394   23.211833   23.400843 C.3        1 MOL1         0.1003
      68    H32     23.294457   24.241118   23.530925 H          1 MOL1         0.0783
      69    O17     23.395347   22.406630   24.499063 O.3        1 MOL1        -0.5519
      70    H33     23.826302   21.609017   24.105786 H          1 MOL1         0.3769
      71    C21     21.392918   23.246914   23.359997 C.3        1 MOL1         0.1053
      72    H34     21.033545   22.208623   23.350120 H          1 MOL1         0.0783
      73    O18     20.934462   23.907269   24.543233 O.3        1 MOL1        -0.5519
      74    H35     21.415286   23.472063   25.280378 H          1 MOL1         0.3769
      75    C22     20.839106   23.961364   22.094532 C.3        1 MOL1         0.1018
      76    H36     20.905762   25.045094   22.254762 H          1 MOL1         0.0783
      77    C23     21.606977   23.564796   20.786845 C.3        1 MOL1         0.1043
      78    H37     21.267578   22.564306   20.493426 H          1 MOL1         0.0783
      79    O19     23.040633   23.535817   21.011047 O.3        1 MOL1        -0.3740
      80    C24     21.399721   24.513535   19.576569 C.3        1 MOL1         0.0138
      81    H38     20.434236   24.306416   19.103126 H          1 MOL1         0.0794
      82    H39     22.166195   24.285573   18.823428 H          1 MOL1         0.0794
      83    O20     21.477385   25.894589   19.949807 O.3        1 MOL1        -0.5486
      84    H40     21.435094   26.428858   19.126826 H          1 MOL1         0.3769
      85    C25     24.652696   17.698979   20.576268 C.3        1 MOL1         0.2972
      86    H41     25.281139   16.943095   20.087733 H          1 MOL1         0.0751
      87    O21     23.486086   17.112647   21.179599 O.3        1 MOL1        -0.3740
      88    C26     25.436406   18.443251   21.691571 C.3        1 MOL1         0.1003
      89    H42     26.303444   18.921121   21.217319 H          1 MOL1         0.0783
      90    O22     25.898640   17.533379   22.702691 O.3        1 MOL1        -0.5519
      91    H43     25.121050   16.992279   22.993499 H          1 MOL1         0.3769
      92    C27     24.564715   19.557553   22.324873 C.3        1 MOL1         0.1053
      93    H44     23.726126   19.084723   22.854629 H          1 MOL1         0.0783
      94    O23     25.353184   20.319725   23.245398 O.3        1 MOL1        -0.5519
      95    H45     25.858949   19.652782   23.761786 H          1 MOL1         0.3769
      96    C28     23.987062   20.478699   21.222427 C.3        1 MOL1         0.1018
      97    H46     24.814662   21.037927   20.765587 H          1 MOL1         0.0783
      98    C29     23.274347   19.667820   20.110885 C.3        1 MOL1         0.1043
      99    H47     22.401964   19.169232   20.548936 H          1 MOL1         0.0783
     100    O24     24.200489   18.673727   19.607887 O.3        1 MOL1        -0.3740
     101    C30     22.759436   20.522853   18.924031 C.3        1 MOL1         0.0138
     102    H48     21.748556   20.874537   19.165442 H          1 MOL1         0.0794
     103    H49     22.667181   19.876912   18.040792 H          1 MOL1         0.0794
     104    O25     23.601032   21.645246   18.628424 O.3        1 MOL1        -0.5486
     105    H50     23.532869   22.271705   19.385822 H          1 MOL1         0.3769
     106    C31     21.366695   13.661239   21.668859 C.3        1 MOL1         0.2972
     107    H51     20.956881   12.648308   21.772420 H          1 MOL1         0.0751
     108    O26     20.333480   14.663680   21.672426 O.3        1 MOL1        -0.3740
     109    C32     22.325157   13.967845   22.842412 C.3        1 MOL1         0.1003
     110    H52     23.168839   13.268426   22.778007 H          1 MOL1         0.0783
     111    O27     21.652103   13.791366   24.099343 O.3        1 MOL1        -0.5519
     112    H53     20.689838   13.952367   23.935064 H          1 MOL1         0.3769
     113    C33     22.879178   15.405515   22.721136 C.3        1 MOL1         0.1053
     114    H54     22.045815   16.100560   22.883881 H          1 MOL1         0.0783
     115    O28     23.879365   15.619677   23.722256 O.3        1 MOL1        -0.5519
     116    H55     23.481924   15.275669   24.553301 H          1 MOL1         0.3769
     117    C34     23.472316   15.680533   21.315817 C.3        1 MOL1         0.1018
     118    H56     24.481679   15.250099   21.273564 H          1 MOL1         0.0783
     119    C35     22.598541   15.130624   20.149831 C.3        1 MOL1         0.1043
     120    H57     21.740723   15.805761   20.038676 H          1 MOL1         0.0783
     121    O29     22.111061   13.794686   20.441533 O.3        1 MOL1        -0.3740
     122    C36     23.328161   15.097692   18.785670 C.3        1 MOL1         0.0138
     123    H58     23.458035   16.129997   18.433701 H          1 MOL1         0.0794
     124    H59     22.686209   14.584201   18.057261 H          1 MOL1         0.0794
     125    O30     24.602812   14.448758   18.870828 O.3        1 MOL1        -0.5486
     126    H60     24.970433   14.393212   17.961766 H          1 MOL1         0.3769
     127    C1      16.927430   22.341720   25.284376 C.2        1 MOL1         0.6173
     128    O1      15.786103   21.944831   25.127686 O.co2      1 MOL1        -0.6755
     129    O2      17.196335   23.522346   25.394967 O.co2      1 MOL1        -0.6755
     130    C2      18.054408   21.407339   25.014638 C.2        1 MOL1        -0.1504
     131    H1      19.048373   21.847481   25.006880 H          1 MOL1         0.0814
     132    C3      17.879369   20.101187   24.713953 C.2        1 MOL1        -0.1394
     133    H2      16.882708   19.664208   24.712575 H          1 MOL1         0.0817
     134    C4      18.996773   19.169287   24.300741 C.3        1 MOL1        -0.1849
     135    H3      18.716439   18.135033   24.541147 H          1 MOL1         0.0736
     136    H4      19.912334   19.389975   24.865722 H          1 MOL1         0.0736
     137    C5      19.270994   19.293131   22.787045 C.3        1 MOL1        -0.1866
     138    H5      18.329994   19.175690   22.236515 H          1 MOL1         0.0738
     139    H6      19.649100   20.299687   22.564818 H          1 MOL1         0.0738
     140    C6      20.278930   18.240438   22.291319 C.3        1 MOL1        -0.2879
     141    H7      19.935823   17.228614   22.537238 H          1 MOL1         0.0750
     142    H8      20.397433   18.298926   21.202909 H          1 MOL1         0.0750
     143    H9      21.261947   18.393132   22.754829 H          1 MOL1         0.0750
@<TRIPOS>BOND
    1     1     2    1
    2     1     3    1
    3     1     4    1
    4     4     5    1
    5     4     6    1
    6     6     7    1
    7     4     8    1
    8     8     9    1
    9     8    10    1
   10    10    11    1
   11     8    12    1
   12    12    13    1
   13    12    14    1
   14    14    15    1
   15     1    16    1
   16    14    16    1
   17    14    17    1
   18    17    18    1
   19    17    19    1
   20    17    20    1
   21    20    21    1
   22    22    23    1
   23    22    24    1
   24    22    25    1
   25    25    26    1
   26    25    27    1
   27    27    28    1
   28    25    29    1
   29    29    30    1
   30    29    31    1
   31    31    32    1
   32     3    33    1
   33    29    33    1
   34    33    34    1
   35    33    35    1
   36    35    36    1
   37    22    37    1
   38    35    37    1
   39    35    38    1
   40    38    39    1
   41    38    40    1
   42    38    41    1
   43    41    42    1
   44    43    44    1
   45    43    45    1
   46    43    46    1
   47    46    47    1
   48    46    48    1
   49    48    49    1
   50    46    50    1
   51    50    51    1
   52    50    52    1
   53    52    53    1
   54    24    54    1
   55    50    54    1
   56    54    55    1
   57    54    56    1
   58    56    57    1
   59    43    58    1
   60    56    58    1
   61    56    59    1
   62    59    60    1
   63    59    61    1
   64    59    62    1
   65    62    63    1
   66    64    65    1
   67    64    66    1
   68    64    67    1
   69    67    68    1
   70    67    69    1
   71    69    70    1
   72    67    71    1
   73    71    72    1
   74    71    73    1
   75    73    74    1
   76    45    75    1
   77    71    75    1
   78    75    76    1
   79    75    77    1
   80    77    78    1
   81    64    79    1
   82    77    79    1
   83    77    80    1
   84    80    81    1
   85    80    82    1
   86    80    83    1
   87    83    84    1
   88    85    86    1
   89    85    87    1
   90    85    88    1
   91    88    89    1
   92    88    90    1
   93    90    91    1
   94    88    92    1
   95    92    93    1
   96    92    94    1
   97    94    95    1
   98    66    96    1
   99    92    96    1
  100    96    97    1
  101    96    98    1
  102    98    99    1
  103    85   100    1
  104    98   100    1
  105    98   101    1
  106   101   102    1
  107   101   103    1
  108   101   104    1
  109   104   105    1
  110   106   107    1
  111    12   108    1
  112   106   108    1
  113   106   109    1
  114   109   110    1
  115   109   111    1
  116   111   112    1
  117   109   113    1
  118   113   114    1
  119   113   115    1
  120   115   116    1
  121    87   117    1
  122   113   117    1
  123   117   118    1
  124   117   119    1
  125   119   120    1
  126   106   121    1
  127   119   121    1
  128   119   122    1
  129   122   123    1
  130   122   124    1
  131   122   125    1
  132   125   126    1
  133   127   128    1
  134   127   129    2
  135   127   130    1
  136   130   131    1
  137   130   132    2
  138   132   133    1
  139   132   134    1
  140   134   135    1
  141   134   136    1
  142   134   137    1
  143   137   138    1
  144   137   139    1
  145   137   140    1
  146   140   141    1
  147   140   142    1
  148   140   143    1
@<TRIPOS>SUBSTRUCTURE
       1 MOL1            1 RESIDUE      1      MOL     
       2 MOL1          143 RESIDUE      1      MOL     
@<SCITEGIC>MOL_PROPERTY
feprocess Rank
SciTegic.value.IntegerValue
137

@<SCITEGIC>MOL_PROPERTY
Conf_Id
SciTegic.value.IntegerValue
502

@<SCITEGIC>MOL_PROPERTY
Probability
SciTegic.value.DoubleValue
0.00

@<SCITEGIC>MOL_PROPERTY
G
SciTegic.value.DoubleValue
502.901

@<SCITEGIC>MOL_PROPERTY
E
SciTegic.value.DoubleValue
322.089

@<SCITEGIC>MOL_PROPERTY
-TS
SciTegic.value.DoubleValue
180.811

@<SCITEGIC>MOL_PROPERTY
U+W
SciTegic.value.DoubleValue
196.001

@<SCITEGIC>MOL_PROPERTY
U
SciTegic.value.DoubleValue
276.117

@<SCITEGIC>MOL_PROPERTY
W
SciTegic.value.DoubleValue
-80.116

@<SCITEGIC>MOL_PROPERTY
W(PB)
SciTegic.value.DoubleValue
-86.091

@<SCITEGIC>MOL_PROPERTY
W(SA)
SciTegic.value.DoubleValue
5.975

@<SCITEGIC>MOL_PROPERTY
Valence
SciTegic.value.DoubleValue
152.852

@<SCITEGIC>MOL_PROPERTY
Coulomb
SciTegic.value.DoubleValue
146.867

@<SCITEGIC>MOL_PROPERTY
VdW
SciTegic.value.DoubleValue
-23.602

@<SCITEGIC>MOL_PROPERTY
VdW6
SciTegic.value.DoubleValue
-177.518

@<SCITEGIC>MOL_PROPERTY
VdW12
SciTegic.value.DoubleValue
153.916

@<SCITEGIC>MOL_PROPERTY
Bond
SciTegic.value.DoubleValue
4.971

@<SCITEGIC>MOL_PROPERTY
Angle
SciTegic.value.DoubleValue
14.819

@<SCITEGIC>MOL_PROPERTY
Pdih
SciTegic.value.DoubleValue
132.904

@<SCITEGIC>MOL_PROPERTY
Idih
SciTegic.value.DoubleValue
0.159

@<SCITEGIC>MOL_PROPERTY
Tether
SciTegic.value.DoubleValue
0.000

@<TRIPOS>MOLECULE
CD_guest-s19_fast_vm2_rndm.mol2 : feprocess host+ligand conformer 138
         143         148           2
SMALL
USER_CHARGES
 
@<TRIPOS>ATOM
       1    C1      16.185579   15.217731   21.282747 C.3        1 MOL1         0.2972
       2    H1      15.135997   14.995327   21.051213 H          1 MOL1         0.0751
       3    O1      16.391357   16.628757   21.478409 O.3        1 MOL1        -0.3740
       4    C2      16.591676   14.502367   22.595365 C.3        1 MOL1         0.1003
       5    H2      16.432962   13.425741   22.451421 H          1 MOL1         0.0783
       6    O2      15.774895   14.964070   23.682587 O.3        1 MOL1        -0.5519
       7    H3      15.542657   15.900832   23.475602 H          1 MOL1         0.3769
       8    C3      18.088968   14.729586   22.909645 C.3        1 MOL1         0.1053
       9    H4      18.235358   15.793971   23.139931 H          1 MOL1         0.0783
      10    O3      18.471152   13.932695   24.036264 O.3        1 MOL1        -0.5519
      11    H5      17.766532   14.082139   24.704973 H          1 MOL1         0.3769
      12    C4      18.965924   14.374640   21.686087 C.3        1 MOL1         0.1018
      13    H6      18.942513   13.286872   21.538734 H          1 MOL1         0.0783
      14    C5      18.460826   15.080475   20.396795 C.3        1 MOL1         0.1043
      15    H7      18.585407   16.162679   20.529521 H          1 MOL1         0.0783
      16    O4      17.053912   14.773141   20.217494 O.3        1 MOL1        -0.3740
      17    C6      19.211171   14.697623   19.095079 C.3        1 MOL1         0.0138
      18    H8      20.061352   15.379795   18.970632 H          1 MOL1         0.0794
      19    H9      18.543356   14.874384   18.241714 H          1 MOL1         0.0794
      20    O5      19.669767   13.340696   19.084088 O.3        1 MOL1        -0.5486
      21    H10     20.490152   13.315145   19.630115 H          1 MOL1         0.3769
      22    C7      14.993683   20.362528   20.305772 C.3        1 MOL1         0.2972
      23    H11     14.463451   21.208648   19.849986 H          1 MOL1         0.0751
      24    O6      16.164959   20.786730   21.025838 O.3        1 MOL1        -0.3740
      25    C8      14.081522   19.593622   21.294995 C.3        1 MOL1         0.1003
      26    H12     13.226511   19.209853   20.723445 H          1 MOL1         0.0783
      27    O7      13.602550   20.455829   22.339528 O.3        1 MOL1        -0.5519
      28    H13     14.393367   20.896321   22.743131 H          1 MOL1         0.3769
      29    C9      14.838261   18.384335   21.898041 C.3        1 MOL1         0.1053
      30    H14     15.647472   18.770261   22.534073 H          1 MOL1         0.0783
      31    O8      13.936621   17.600468   22.687132 O.3        1 MOL1        -0.5519
      32    H15     13.443627   18.250025   23.235776 H          1 MOL1         0.3769
      33    C10     15.475499   17.503289   20.793250 C.3        1 MOL1         0.1018
      34    H16     14.673189   16.949789   20.288110 H          1 MOL1         0.0783
      35    C11     16.261624   18.347066   19.746714 C.3        1 MOL1         0.1043
      36    H17     17.148778   18.760821   20.238783 H          1 MOL1         0.0783
      37    O9      15.415762   19.430506   19.288722 O.3        1 MOL1        -0.3740
      38    C12     16.764150   17.577913   18.498485 C.3        1 MOL1         0.0138
      39    H18     17.768909   17.191921   18.706508 H          1 MOL1         0.0794
      40    H19     16.874527   18.292475   17.671925 H          1 MOL1         0.0794
      41    O10     15.900139   16.504148   18.108170 O.3        1 MOL1        -0.5486
      42    H20     16.108975   15.746224   18.702260 H          1 MOL1         0.3769
      43    C13     18.434754   24.078121   21.983939 C.3        1 MOL1         0.2972
      44    H21     18.840182   25.073558   22.205977 H          1 MOL1         0.0751
      45    O11     19.460963   23.069598   21.986464 O.3        1 MOL1        -0.3740
      46    C14     17.392515   23.685460   23.056621 C.3        1 MOL1         0.1003
      47    H22     16.576099   24.418066   23.013477 H          1 MOL1         0.0783
      48    O12     17.987689   23.709519   24.364110 O.3        1 MOL1        -0.5519
      49    H23     18.950171   23.513467   24.244692 H          1 MOL1         0.3769
      50    C15     16.802841   22.288839   22.755691 C.3        1 MOL1         0.1053
      51    H24     17.599736   21.545171   22.890720 H          1 MOL1         0.0783
      52    O13     15.732850   22.018282   23.667511 O.3        1 MOL1        -0.5519
      53    H25     16.088783   22.257926   24.552231 H          1 MOL1         0.3769
      54    C16     16.291707   22.191185   21.297230 C.3        1 MOL1         0.1018
      55    H26     15.329442   22.715552   21.226260 H          1 MOL1         0.0783
      56    C17     17.299138   22.765581   20.260170 C.3        1 MOL1         0.1043
      57    H27     18.140317   22.063933   20.188152 H          1 MOL1         0.0783
      58    O14     17.791040   24.060866   20.693271 O.3        1 MOL1        -0.3740
      59    C18     16.714403   22.913110   18.835675 C.3        1 MOL1         0.0138
      60    H28     16.589262   21.909771   18.406051 H          1 MOL1         0.0794
      61    H29     17.444743   23.444371   18.210724 H          1 MOL1         0.0794
      62    O15     15.459306   23.605161   18.835710 O.3        1 MOL1        -0.5486
      63    H30     15.187685   23.729167   17.900203 H          1 MOL1         0.3769
      64    C19     23.606825   22.688132   21.634718 C.3        1 MOL1         0.2972
      65    H31     24.673502   22.914118   21.508327 H          1 MOL1         0.0751
      66    O16     23.382360   21.271145   21.746604 O.3        1 MOL1        -0.3740
      67    C20     23.087086   23.345604   22.937815 C.3        1 MOL1         0.1003
      68    H32     23.260482   24.426642   22.858173 H          1 MOL1         0.0783
      69    O17     23.801402   22.830591   24.071916 O.3        1 MOL1        -0.5519
      70    H33     24.044551   21.901592   23.846233 H          1 MOL1         0.3769
      71    C21     21.567585   23.113649   23.106389 C.3        1 MOL1         0.1053
      72    H34     21.395915   22.039848   23.265804 H          1 MOL1         0.0783
      73    O18     21.089296   23.855974   24.233537 O.3        1 MOL1        -0.5519
      74    H35     21.735147   23.672001   24.951516 H          1 MOL1         0.3769
      75    C22     20.808793   23.540358   21.829187 C.3        1 MOL1         0.1018
      76    H36     20.859696   24.633345   21.737914 H          1 MOL1         0.0783
      77    C23     21.417550   22.888431   20.557968 C.3        1 MOL1         0.1043
      78    H37     21.269873   21.803071   20.630350 H          1 MOL1         0.0783
      79    O19     22.838338   23.183197   20.515120 O.3        1 MOL1        -0.3740
      80    C24     20.781038   23.346588   19.219805 C.3        1 MOL1         0.0138
      81    H38     19.923680   22.698164   19.001255 H          1 MOL1         0.0794
      82    H39     21.508049   23.185824   18.412881 H          1 MOL1         0.0794
      83    O20     20.356781   24.714704   19.234498 O.3        1 MOL1        -0.5486
      84    H40     19.483000   24.734274   19.689603 H          1 MOL1         0.3769
      85    C25     24.867721   17.582278   20.592699 C.3        1 MOL1         0.2972
      86    H41     25.412270   16.734885   20.156724 H          1 MOL1         0.0751
      87    O21     23.662908   17.164637   21.257195 O.3        1 MOL1        -0.3740
      88    C26     25.736605   18.336000   21.630031 C.3        1 MOL1         0.1003
      89    H42     26.620419   18.720035   21.104360 H          1 MOL1         0.0783
      90    O22     26.155870   17.459257   22.688413 O.3        1 MOL1        -0.5519
      91    H43     25.340650   17.026823   23.050571 H          1 MOL1         0.3769
      92    C27     24.957216   19.541403   22.210320 C.3        1 MOL1         0.1053
      93    H44     24.133132   19.147720   22.818823 H          1 MOL1         0.0783
      94    O23     25.828562   20.323495   23.033852 O.3        1 MOL1        -0.5519
      95    H45     26.295273   19.674178   23.605047 H          1 MOL1         0.3769
      96    C28     24.349647   20.428655   21.092887 C.3        1 MOL1         0.1018
      97    H46     25.164077   21.008188   20.639191 H          1 MOL1         0.0783
      98    C29     23.627527   19.601706   19.987429 C.3        1 MOL1         0.1043
      99    H47     22.704837   19.181800   20.410783 H          1 MOL1         0.0783
     100    O24     24.500432   18.525263   19.564813 O.3        1 MOL1        -0.3740
     101    C30     23.216775   20.400399   18.723169 C.3        1 MOL1         0.0138
     102    H48     22.207949   20.799482   18.873194 H          1 MOL1         0.0794
     103    H49     23.149238   19.702652   17.877904 H          1 MOL1         0.0794
     104    O25     24.115552   21.471051   18.408718 O.3        1 MOL1        -0.5486
     105    H50     23.883190   22.218050   19.007628 H          1 MOL1         0.3769
     106    C31     21.325995   13.860553   22.036547 C.3        1 MOL1         0.2972
     107    H51     20.921248   12.857274   22.221558 H          1 MOL1         0.0751
     108    O26     20.285822   14.852779   21.992218 O.3        1 MOL1        -0.3740
     109    C32     22.295530   14.252509   23.176490 C.3        1 MOL1         0.1003
     110    H52     23.114770   13.521946   23.185161 H          1 MOL1         0.0783
     111    O27     21.612729   14.220706   24.440149 O.3        1 MOL1        -0.5519
     112    H53     20.662907   14.419793   24.253054 H          1 MOL1         0.3769
     113    C33     22.901237   15.651994   22.922218 C.3        1 MOL1         0.1053
     114    H54     22.094783   16.392736   23.003988 H          1 MOL1         0.0783
     115    O28     23.911425   15.921575   23.901013 O.3        1 MOL1        -0.5519
     116    H55     23.487121   15.716205   24.763287 H          1 MOL1         0.3769
     117    C34     23.503543   15.759290   21.501404 C.3        1 MOL1         0.1018
     118    H56     24.461328   15.222542   21.480507 H          1 MOL1         0.0783
     119    C35     22.548382   15.211685   20.405041 C.3        1 MOL1         0.1043
     120    H57     21.711107   15.917187   20.315349 H          1 MOL1         0.0783
     121    O29     22.042957   13.905063   20.785622 O.3        1 MOL1        -0.3740
     122    C36     23.199308   15.096536   19.006284 C.3        1 MOL1         0.0138
     123    H58     23.342867   16.109259   18.605563 H          1 MOL1         0.0794
     124    H59     22.499964   14.579147   18.335951 H          1 MOL1         0.0794
     125    O30     24.454000   14.404853   19.049331 O.3        1 MOL1        -0.5486
     126    H60     24.769034   14.302143   18.124991 H          1 MOL1         0.3769
     127    C1      19.856080   19.168405   19.842078 C.2        1 MOL1         0.6173
     128    O1      20.153520   18.042704   19.483840 O.co2      1 MOL1        -0.6755
     129    O2      19.784699   20.119565   19.087309 O.co2      1 MOL1        -0.6755
     130    C2      19.526041   19.420783   21.270018 C.2        1 MOL1        -0.1504
     131    H1      19.251120   20.440970   21.518313 H          1 MOL1         0.0814
     132    C3      19.540180   18.468143   22.227304 C.2        1 MOL1        -0.1394
     133    H2      19.822400   17.445694   21.987460 H          1 MOL1         0.0817
     134    C4      19.186580   18.727839   23.675970 C.3        1 MOL1        -0.1849
     135    H3      18.224763   18.250065   23.904047 H          1 MOL1         0.0736
     136    H4      19.048281   19.802752   23.852802 H          1 MOL1         0.0736
     137    C5      20.265301   18.186789   24.637998 C.3        1 MOL1        -0.1866
     138    H5      19.923594   18.313877   25.674015 H          1 MOL1         0.0738
     139    H6      20.391878   17.107242   24.480051 H          1 MOL1         0.0738
     140    C6      21.619379   18.906236   24.458132 C.3        1 MOL1        -0.2879
     141    H7      21.525338   19.978132   24.673297 H          1 MOL1         0.0750
     142    H8      22.375296   18.486998   25.134154 H          1 MOL1         0.0750
     143    H9      21.986502   18.796992   23.430225 H          1 MOL1         0.0750
@<TRIPOS>BOND
    1     1     2    1
    2     1     3    1
    3     1     4    1
    4     4     5    1
    5     4     6    1
    6     6     7    1
    7     4     8    1
    8     8     9    1
    9     8    10    1
   10    10    11    1
   11     8    12    1
   12    12    13    1
   13    12    14    1
   14    14    15    1
   15     1    16    1
   16    14    16    1
   17    14    17    1
   18    17    18    1
   19    17    19    1
   20    17    20    1
   21    20    21    1
   22    22    23    1
   23    22    24    1
   24    22    25    1
   25    25    26    1
   26    25    27    1
   27    27    28    1
   28    25    29    1
   29    29    30    1
   30    29    31    1
   31    31    32    1
   32     3    33    1
   33    29    33    1
   34    33    34    1
   35    33    35    1
   36    35    36    1
   37    22    37    1
   38    35    37    1
   39    35    38    1
   40    38    39    1
   41    38    40    1
   42    38    41    1
   43    41    42    1
   44    43    44    1
   45    43    45    1
   46    43    46    1
   47    46    47    1
   48    46    48    1
   49    48    49    1
   50    46    50    1
   51    50    51    1
   52    50    52    1
   53    52    53    1
   54    24    54    1
   55    50    54    1
   56    54    55    1
   57    54    56    1
   58    56    57    1
   59    43    58    1
   60    56    58    1
   61    56    59    1
   62    59    60    1
   63    59    61    1
   64    59    62    1
   65    62    63    1
   66    64    65    1
   67    64    66    1
   68    64    67    1
   69    67    68    1
   70    67    69    1
   71    69    70    1
   72    67    71    1
   73    71    72    1
   74    71    73    1
   75    73    74    1
   76    45    75    1
   77    71    75    1
   78    75    76    1
   79    75    77    1
   80    77    78    1
   81    64    79    1
   82    77    79    1
   83    77    80    1
   84    80    81    1
   85    80    82    1
   86    80    83    1
   87    83    84    1
   88    85    86    1
   89    85    87    1
   90    85    88    1
   91    88    89    1
   92    88    90    1
   93    90    91    1
   94    88    92    1
   95    92    93    1
   96    92    94    1
   97    94    95    1
   98    66    96    1
   99    92    96    1
  100    96    97    1
  101    96    98    1
  102    98    99    1
  103    85   100    1
  104    98   100    1
  105    98   101    1
  106   101   102    1
  107   101   103    1
  108   101   104    1
  109   104   105    1
  110   106   107    1
  111    12   108    1
  112   106   108    1
  113   106   109    1
  114   109   110    1
  115   109   111    1
  116   111   112    1
  117   109   113    1
  118   113   114    1
  119   113   115    1
  120   115   116    1
  121    87   117    1
  122   113   117    1
  123   117   118    1
  124   117   119    1
  125   119   120    1
  126   106   121    1
  127   119   121    1
  128   119   122    1
  129   122   123    1
  130   122   124    1
  131   122   125    1
  132   125   126    1
  133   127   128    1
  134   127   129    2
  135   127   130    1
  136   130   131    1
  137   130   132    2
  138   132   133    1
  139   132   134    1
  140   134   135    1
  141   134   136    1
  142   134   137    1
  143   137   138    1
  144   137   139    1
  145   137   140    1
  146   140   141    1
  147   140   142    1
  148   140   143    1
@<TRIPOS>SUBSTRUCTURE
       1 MOL1            1 RESIDUE      1      MOL     
       2 MOL1          143 RESIDUE      1      MOL     
@<SCITEGIC>MOL_PROPERTY
feprocess Rank
SciTegic.value.IntegerValue
138

@<SCITEGIC>MOL_PROPERTY
Conf_Id
SciTegic.value.IntegerValue
59

@<SCITEGIC>MOL_PROPERTY
Probability
SciTegic.value.DoubleValue
0.00

@<SCITEGIC>MOL_PROPERTY
G
SciTegic.value.DoubleValue
502.913

@<SCITEGIC>MOL_PROPERTY
E
SciTegic.value.DoubleValue
321.947

@<SCITEGIC>MOL_PROPERTY
-TS
SciTegic.value.DoubleValue
180.965

@<SCITEGIC>MOL_PROPERTY
U+W
SciTegic.value.DoubleValue
195.859

@<SCITEGIC>MOL_PROPERTY
U
SciTegic.value.DoubleValue
263.234

@<SCITEGIC>MOL_PROPERTY
W
SciTegic.value.DoubleValue
-67.375

@<SCITEGIC>MOL_PROPERTY
W(PB)
SciTegic.value.DoubleValue
-73.225

@<SCITEGIC>MOL_PROPERTY
W(SA)
SciTegic.value.DoubleValue
5.850

@<SCITEGIC>MOL_PROPERTY
Valence
SciTegic.value.DoubleValue
150.012

@<SCITEGIC>MOL_PROPERTY
Coulomb
SciTegic.value.DoubleValue
142.650

@<SCITEGIC>MOL_PROPERTY
VdW
SciTegic.value.DoubleValue
-29.428

@<SCITEGIC>MOL_PROPERTY
VdW6
SciTegic.value.DoubleValue
-183.367

@<SCITEGIC>MOL_PROPERTY
VdW12
SciTegic.value.DoubleValue
153.939

@<SCITEGIC>MOL_PROPERTY
Bond
SciTegic.value.DoubleValue
4.325

@<SCITEGIC>MOL_PROPERTY
Angle
SciTegic.value.DoubleValue
13.133

@<SCITEGIC>MOL_PROPERTY
Pdih
SciTegic.value.DoubleValue
132.552

@<SCITEGIC>MOL_PROPERTY
Idih
SciTegic.value.DoubleValue
0.002

@<SCITEGIC>MOL_PROPERTY
Tether
SciTegic.value.DoubleValue
0.000

@<TRIPOS>MOLECULE
CD_guest-s19_fast_vm2_rndm.mol2 : feprocess host+ligand conformer 139
         143         148           2
SMALL
USER_CHARGES
 
@<TRIPOS>ATOM
       1    C1      16.527988   15.671700   20.425860 C.3        1 MOL1         0.2972
       2    H1      15.584128   15.492297   19.894903 H          1 MOL1         0.0751
       3    O1      16.507541   16.922146   21.130235 O.3        1 MOL1        -0.3740
       4    C2      16.794200   14.552785   21.471579 C.3        1 MOL1         0.1003
       5    H2      16.777000   13.595619   20.934446 H          1 MOL1         0.0783
       6    O2      15.774172   14.540457   22.484102 O.3        1 MOL1        -0.5519
       7    H3      15.649465   15.474395   22.790935 H          1 MOL1         0.3769
       8    C3      18.193750   14.707026   22.121670 C.3        1 MOL1         0.1053
       9    H4      18.198172   15.621799   22.731097 H          1 MOL1         0.0783
      10    O3      18.465337   13.567964   22.945661 O.3        1 MOL1        -0.5519
      11    H5      17.641274   13.424609   23.462742 H          1 MOL1         0.3769
      12    C4      19.273234   14.846882   21.021772 C.3        1 MOL1         0.1018
      13    H6      19.299360   13.917514   20.436575 H          1 MOL1         0.0783
      14    C5      18.927048   16.008204   20.058804 C.3        1 MOL1         0.1043
      15    H7      18.889581   16.945671   20.630049 H          1 MOL1         0.0783
      16    O4      17.626964   15.724438   19.486810 O.3        1 MOL1        -0.3740
      17    C6      19.942626   16.206824   18.905172 C.3        1 MOL1         0.0138
      18    H8      20.760586   16.839219   19.271215 H          1 MOL1         0.0794
      19    H9      19.449822   16.761717   18.095824 H          1 MOL1         0.0794
      20    O5      20.472697   14.972272   18.405242 O.3        1 MOL1        -0.5486
      21    H10     21.013474   14.570133   19.123920 H          1 MOL1         0.3769
      22    C7      14.457375   20.428610   21.526180 C.3        1 MOL1         0.2972
      23    H11     13.756474   21.269823   21.601612 H          1 MOL1         0.0751
      24    O6      15.825566   20.872098   21.627574 O.3        1 MOL1        -0.3740
      25    C8      14.170922   19.402852   22.650459 C.3        1 MOL1         0.1003
      26    H12     13.178102   18.976873   22.457019 H          1 MOL1         0.0783
      27    O7      14.153674   20.041245   23.936218 O.3        1 MOL1        -0.5519
      28    H13     15.093422   20.256726   24.184588 H          1 MOL1         0.3769
      29    C9      15.202806   18.252111   22.585936 C.3        1 MOL1         0.1053
      30    H14     16.195762   18.677462   22.772808 H          1 MOL1         0.0783
      31    O8      14.914667   17.242282   23.562645 O.3        1 MOL1        -0.5519
      32    H15     15.158266   17.640753   24.439905 H          1 MOL1         0.3769
      33    C10     15.244968   17.612650   21.179903 C.3        1 MOL1         0.1018
      34    H16     14.391319   16.929106   21.079973 H          1 MOL1         0.0783
      35    C11     15.251811   18.659417   20.027413 C.3        1 MOL1         0.1043
      36    H17     16.263165   19.080389   19.995052 H          1 MOL1         0.0783
      37    O9      14.303595   19.733990   20.270326 O.3        1 MOL1        -0.3740
      38    C12     14.957859   18.060176   18.630944 C.3        1 MOL1         0.0138
      39    H18     15.825149   17.466260   18.313236 H          1 MOL1         0.0794
      40    H19     14.848223   18.882880   17.911587 H          1 MOL1         0.0794
      41    O10     13.781549   17.242529   18.633264 O.3        1 MOL1        -0.5486
      42    H20     13.608020   16.966564   17.706795 H          1 MOL1         0.3769
      43    C13     18.469590   23.960788   20.930412 C.3        1 MOL1         0.2972
      44    H21     18.992279   24.876417   20.625230 H          1 MOL1         0.0751
      45    O11     19.379419   22.976523   21.460203 O.3        1 MOL1        -0.3740
      46    C14     17.401974   24.269640   22.006961 C.3        1 MOL1         0.1003
      47    H22     16.694129   24.982678   21.564780 H          1 MOL1         0.0783
      48    O12     18.001569   24.863780   23.169769 O.3        1 MOL1        -0.5519
      49    H23     18.743241   24.270694   23.453583 H          1 MOL1         0.3769
      50    C15     16.610423   22.994894   22.393345 C.3        1 MOL1         0.1053
      51    H24     17.276373   22.337979   22.971714 H          1 MOL1         0.0783
      52    O13     15.488955   23.380498   23.195181 O.3        1 MOL1        -0.5519
      53    H25     15.869303   23.861571   23.961297 H          1 MOL1         0.3769
      54    C16     16.113055   22.202475   21.152739 C.3        1 MOL1         0.1018
      55    H26     15.218497   22.704477   20.762269 H          1 MOL1         0.0783
      56    C17     17.183519   22.089077   20.024023 C.3        1 MOL1         0.1043
      57    H27     17.955832   21.381798   20.354457 H          1 MOL1         0.0783
      58    O14     17.787114   23.384398   19.800631 O.3        1 MOL1        -0.3740
      59    C18     16.663657   21.584744   18.649871 C.3        1 MOL1         0.0138
      60    H28     16.853785   20.508810   18.570586 H          1 MOL1         0.0794
      61    H29     17.260901   22.057565   17.858631 H          1 MOL1         0.0794
      62    O15     15.273933   21.850581   18.426833 O.3        1 MOL1        -0.5486
      63    H30     14.765045   21.227543   18.997262 H          1 MOL1         0.3769
      64    C19     23.450182   22.391353   22.124298 C.3        1 MOL1         0.2972
      65    H31     24.520518   22.560365   22.293434 H          1 MOL1         0.0751
      66    O16     23.161833   20.983590   21.988811 O.3        1 MOL1        -0.3740
      67    C20     22.643990   22.951183   23.323490 C.3        1 MOL1         0.1003
      68    H32     22.875496   24.021123   23.405932 H          1 MOL1         0.0783
      69    O17     23.025956   22.291013   24.538513 O.3        1 MOL1        -0.5519
      70    H33     23.092842   21.336516   24.318373 H          1 MOL1         0.3769
      71    C21     21.123335   22.808920   23.088862 C.3        1 MOL1         0.1053
      72    H34     20.872518   21.739826   23.067834 H          1 MOL1         0.0783
      73    O18     20.417314   23.457605   24.151843 O.3        1 MOL1        -0.5519
      74    H35     20.835946   23.125343   24.976764 H          1 MOL1         0.3769
      75    C22     20.717536   23.431382   21.734206 C.3        1 MOL1         0.1018
      76    H36     20.772454   24.524856   21.821666 H          1 MOL1         0.0783
      77    C23     21.621223   22.938745   20.571525 C.3        1 MOL1         0.1043
      78    H37     21.386218   21.882700   20.404605 H          1 MOL1         0.0783
      79    O19     23.023656   23.064808   20.919148 O.3        1 MOL1        -0.3740
      80    C24     21.382949   23.687484   19.237690 C.3        1 MOL1         0.0138
      81    H38     20.406389   23.385184   18.836127 H          1 MOL1         0.0794
      82    H39     22.143810   23.368819   18.512751 H          1 MOL1         0.0794
      83    O20     21.421001   25.110151   19.405613 O.3        1 MOL1        -0.5486
      84    H40     21.335890   25.517378   18.516034 H          1 MOL1         0.3769
      85    C25     25.207661   17.460461   21.013014 C.3        1 MOL1         0.2972
      86    H41     25.860045   16.705217   20.556384 H          1 MOL1         0.0751
      87    O21     24.329016   16.871941   21.990161 O.3        1 MOL1        -0.3740
      88    C26     26.058894   18.530514   21.739974 C.3        1 MOL1         0.1003
      89    H42     26.728992   18.979907   20.995460 H          1 MOL1         0.0783
      90    O22     26.839120   17.920596   22.778848 O.3        1 MOL1        -0.5519
      91    H43     26.216253   17.346441   23.280548 H          1 MOL1         0.3769
      92    C27     25.176247   19.656452   22.335832 C.3        1 MOL1         0.1053
      93    H44     24.606276   19.234787   23.173596 H          1 MOL1         0.0783
      94    O23     26.035224   20.696324   22.812480 O.3        1 MOL1        -0.5519
      95    H45     26.724743   20.240418   23.343922 H          1 MOL1         0.3769
      96    C28     24.166388   20.212425   21.293531 C.3        1 MOL1         0.1018
      97    H46     24.714932   20.829366   20.569929 H          1 MOL1         0.0783
      98    C29     23.432333   19.073104   20.533061 C.3        1 MOL1         0.1043
      99    H47     22.769639   18.553761   21.235924 H          1 MOL1         0.0783
     100    O24     24.409179   18.138957   20.018025 O.3        1 MOL1        -0.3740
     101    C30     22.549363   19.553376   19.354556 C.3        1 MOL1         0.0138
     102    H48     21.574151   19.857534   19.754659 H          1 MOL1         0.0794
     103    H49     22.364646   18.702880   18.685071 H          1 MOL1         0.0794
     104    O25     23.136960   20.635358   18.620696 O.3        1 MOL1        -0.5486
     105    H50     23.256421   21.386043   19.243519 H          1 MOL1         0.3769
     106    C31     21.402294   13.952425   21.719406 C.3        1 MOL1         0.2972
     107    H51     20.821158   13.022412   21.665473 H          1 MOL1         0.0751
     108    O26     20.546124   15.110030   21.643896 O.3        1 MOL1        -0.3740
     109    C32     22.197549   13.976234   23.040582 C.3        1 MOL1         0.1003
     110    H52     22.862980   13.103125   23.040344 H          1 MOL1         0.0783
     111    O27     21.305099   13.893988   24.163899 O.3        1 MOL1        -0.5519
     112    H53     20.391121   14.026329   23.811755 H          1 MOL1         0.3769
     113    C33     23.071714   15.242983   23.133174 C.3        1 MOL1         0.1053
     114    H54     22.392474   16.097680   23.240837 H          1 MOL1         0.0783
     115    O28     23.908390   15.140379   24.290335 O.3        1 MOL1        -0.5519
     116    H55     23.296489   14.909759   25.023287 H          1 MOL1         0.3769
     117    C34     23.935611   15.482807   21.864337 C.3        1 MOL1         0.1018
     118    H56     24.813392   14.826072   21.911638 H          1 MOL1         0.0783
     119    C35     23.148024   15.222676   20.533854 C.3        1 MOL1         0.1043
     120    H57     22.492478   16.083550   20.359970 H          1 MOL1         0.0783
     121    O29     22.339985   14.020908   20.632026 O.3        1 MOL1        -0.3740
     122    C36     24.026041   15.020976   19.269112 C.3        1 MOL1         0.0138
     123    H58     24.368987   15.990363   18.892457 H          1 MOL1         0.0794
     124    H59     23.398147   14.589942   18.477481 H          1 MOL1         0.0794
     125    O30     25.150248   14.168800   19.518466 O.3        1 MOL1        -0.5486
     126    H60     25.599375   14.008319   18.659845 H          1 MOL1         0.3769
     127    C1      17.086155   19.155460   25.151391 C.2        1 MOL1         0.6173
     128    O1      16.797395   20.309234   24.894304 O.co2      1 MOL1        -0.6755
     129    O2      16.340702   18.411041   25.759006 O.co2      1 MOL1        -0.6755
     130    C2      18.308911   18.555999   24.554521 C.2        1 MOL1        -0.1504
     131    H1      18.481777   17.506545   24.780452 H          1 MOL1         0.0814
     132    C3      19.172433   19.234976   23.766449 C.2        1 MOL1        -0.1394
     133    H2      19.003100   20.285322   23.531003 H          1 MOL1         0.0817
     134    C4      20.411054   18.615076   23.156399 C.3        1 MOL1        -0.1849
     135    H3      20.620579   19.107734   22.198654 H          1 MOL1         0.0736
     136    H4      20.233903   17.556020   22.927532 H          1 MOL1         0.0736
     137    C5      21.646616   18.749443   24.073194 C.3        1 MOL1        -0.1866
     138    H5      22.532074   18.399575   23.531206 H          1 MOL1         0.0738
     139    H6      21.815419   19.806552   24.308401 H          1 MOL1         0.0738
     140    C6      21.522596   17.945438   25.384545 C.3        1 MOL1        -0.2879
     141    H7      21.287979   16.892466   25.183070 H          1 MOL1         0.0750
     142    H8      22.463310   17.981879   25.948449 H          1 MOL1         0.0750
     143    H9      20.731556   18.355039   26.025116 H          1 MOL1         0.0750
@<TRIPOS>BOND
    1     1     2    1
    2     1     3    1
    3     1     4    1
    4     4     5    1
    5     4     6    1
    6     6     7    1
    7     4     8    1
    8     8     9    1
    9     8    10    1
   10    10    11    1
   11     8    12    1
   12    12    13    1
   13    12    14    1
   14    14    15    1
   15     1    16    1
   16    14    16    1
   17    14    17    1
   18    17    18    1
   19    17    19    1
   20    17    20    1
   21    20    21    1
   22    22    23    1
   23    22    24    1
   24    22    25    1
   25    25    26    1
   26    25    27    1
   27    27    28    1
   28    25    29    1
   29    29    30    1
   30    29    31    1
   31    31    32    1
   32     3    33    1
   33    29    33    1
   34    33    34    1
   35    33    35    1
   36    35    36    1
   37    22    37    1
   38    35    37    1
   39    35    38    1
   40    38    39    1
   41    38    40    1
   42    38    41    1
   43    41    42    1
   44    43    44    1
   45    43    45    1
   46    43    46    1
   47    46    47    1
   48    46    48    1
   49    48    49    1
   50    46    50    1
   51    50    51    1
   52    50    52    1
   53    52    53    1
   54    24    54    1
   55    50    54    1
   56    54    55    1
   57    54    56    1
   58    56    57    1
   59    43    58    1
   60    56    58    1
   61    56    59    1
   62    59    60    1
   63    59    61    1
   64    59    62    1
   65    62    63    1
   66    64    65    1
   67    64    66    1
   68    64    67    1
   69    67    68    1
   70    67    69    1
   71    69    70    1
   72    67    71    1
   73    71    72    1
   74    71    73    1
   75    73    74    1
   76    45    75    1
   77    71    75    1
   78    75    76    1
   79    75    77    1
   80    77    78    1
   81    64    79    1
   82    77    79    1
   83    77    80    1
   84    80    81    1
   85    80    82    1
   86    80    83    1
   87    83    84    1
   88    85    86    1
   89    85    87    1
   90    85    88    1
   91    88    89    1
   92    88    90    1
   93    90    91    1
   94    88    92    1
   95    92    93    1
   96    92    94    1
   97    94    95    1
   98    66    96    1
   99    92    96    1
  100    96    97    1
  101    96    98    1
  102    98    99    1
  103    85   100    1
  104    98   100    1
  105    98   101    1
  106   101   102    1
  107   101   103    1
  108   101   104    1
  109   104   105    1
  110   106   107    1
  111    12   108    1
  112   106   108    1
  113   106   109    1
  114   109   110    1
  115   109   111    1
  116   111   112    1
  117   109   113    1
  118   113   114    1
  119   113   115    1
  120   115   116    1
  121    87   117    1
  122   113   117    1
  123   117   118    1
  124   117   119    1
  125   119   120    1
  126   106   121    1
  127   119   121    1
  128   119   122    1
  129   122   123    1
  130   122   124    1
  131   122   125    1
  132   125   126    1
  133   127   128    1
  134   127   129    2
  135   127   130    1
  136   130   131    1
  137   130   132    2
  138   132   133    1
  139   132   134    1
  140   134   135    1
  141   134   136    1
  142   134   137    1
  143   137   138    1
  144   137   139    1
  145   137   140    1
  146   140   141    1
  147   140   142    1
  148   140   143    1
@<TRIPOS>SUBSTRUCTURE
       1 MOL1            1 RESIDUE      1      MOL     
       2 MOL1          143 RESIDUE      1      MOL     
@<SCITEGIC>MOL_PROPERTY
feprocess Rank
SciTegic.value.IntegerValue
139

@<SCITEGIC>MOL_PROPERTY
Conf_Id
SciTegic.value.IntegerValue
998

@<SCITEGIC>MOL_PROPERTY
Probability
SciTegic.value.DoubleValue
0.00

@<SCITEGIC>MOL_PROPERTY
G
SciTegic.value.DoubleValue
503.017

@<SCITEGIC>MOL_PROPERTY
E
SciTegic.value.DoubleValue
321.079

@<SCITEGIC>MOL_PROPERTY
-TS
SciTegic.value.DoubleValue
181.938

@<SCITEGIC>MOL_PROPERTY
U+W
SciTegic.value.DoubleValue
194.991

@<SCITEGIC>MOL_PROPERTY
U
SciTegic.value.DoubleValue
274.575

@<SCITEGIC>MOL_PROPERTY
W
SciTegic.value.DoubleValue
-79.584

@<SCITEGIC>MOL_PROPERTY
W(PB)
SciTegic.value.DoubleValue
-85.617

@<SCITEGIC>MOL_PROPERTY
W(SA)
SciTegic.value.DoubleValue
6.033

@<SCITEGIC>MOL_PROPERTY
Valence
SciTegic.value.DoubleValue
146.413

@<SCITEGIC>MOL_PROPERTY
Coulomb
SciTegic.value.DoubleValue
151.323

@<SCITEGIC>MOL_PROPERTY
VdW
SciTegic.value.DoubleValue
-23.161

@<SCITEGIC>MOL_PROPERTY
VdW6
SciTegic.value.DoubleValue
-176.286

@<SCITEGIC>MOL_PROPERTY
VdW12
SciTegic.value.DoubleValue
153.126

@<SCITEGIC>MOL_PROPERTY
Bond
SciTegic.value.DoubleValue
4.921

@<SCITEGIC>MOL_PROPERTY
Angle
SciTegic.value.DoubleValue
15.429

@<SCITEGIC>MOL_PROPERTY
Pdih
SciTegic.value.DoubleValue
126.014

@<SCITEGIC>MOL_PROPERTY
Idih
SciTegic.value.DoubleValue
0.049

@<SCITEGIC>MOL_PROPERTY
Tether
SciTegic.value.DoubleValue
0.000

@<TRIPOS>MOLECULE
CD_guest-s19_fast_vm2_rndm.mol2 : feprocess host+ligand conformer 140
         143         148           2
SMALL
USER_CHARGES
 
@<TRIPOS>ATOM
       1    C1      16.128570   15.210228   21.166919 C.3        1 MOL1         0.2972
       2    H1      15.081118   14.968118   20.946102 H          1 MOL1         0.0751
       3    O1      16.311535   16.625505   21.362207 O.3        1 MOL1        -0.3740
       4    C2      16.561900   14.506364   22.477856 C.3        1 MOL1         0.1003
       5    H2      16.426141   13.426325   22.335966 H          1 MOL1         0.0783
       6    O2      15.744919   14.949245   23.572673 O.3        1 MOL1        -0.5519
       7    H3      15.549942   15.902827   23.409015 H          1 MOL1         0.3769
       8    C3      18.056648   14.766444   22.782648 C.3        1 MOL1         0.1053
       9    H4      18.183744   15.831044   23.014358 H          1 MOL1         0.0783
      10    O3      18.460123   13.976405   23.905045 O.3        1 MOL1        -0.5519
      11    H5      17.740905   14.089487   24.566242 H          1 MOL1         0.3769
      12    C4      18.934005   14.441013   21.551654 C.3        1 MOL1         0.1018
      13    H6      18.959008   13.352860   21.406515 H          1 MOL1         0.0783
      14    C5      18.396920   15.115126   20.262153 C.3        1 MOL1         0.1043
      15    H7      18.494752   16.202153   20.381974 H          1 MOL1         0.0783
      16    O4      16.996583   14.776140   20.094556 O.3        1 MOL1        -0.3740
      17    C6      19.172744   14.731038   18.973886 C.3        1 MOL1         0.0138
      18    H8      19.997090   15.443558   18.842283 H          1 MOL1         0.0794
      19    H9      18.505406   14.853675   18.110463 H          1 MOL1         0.0794
      20    O5      19.697911   13.397900   19.003150 O.3        1 MOL1        -0.5486
      21    H10     20.441500   13.391603   19.649009 H          1 MOL1         0.3769
      22    C7      14.941522   20.368534   20.223912 C.3        1 MOL1         0.2972
      23    H11     14.419050   21.234880   19.798299 H          1 MOL1         0.0751
      24    O6      16.204661   20.747215   20.809046 O.3        1 MOL1        -0.3740
      25    C8      14.064731   19.639922   21.278406 C.3        1 MOL1         0.1003
      26    H12     13.174665   19.266628   20.755380 H          1 MOL1         0.0783
      27    O7      13.646255   20.518512   22.333453 O.3        1 MOL1        -0.5519
      28    H13     14.465075   20.799130   22.815271 H          1 MOL1         0.3769
      29    C9      14.823518   18.421121   21.855369 C.3        1 MOL1         0.1053
      30    H14     15.685205   18.800340   22.419837 H          1 MOL1         0.0783
      31    O8      13.960668   17.682633   22.727049 O.3        1 MOL1        -0.5519
      32    H15     13.532575   18.356366   23.299673 H          1 MOL1         0.3769
      33    C10     15.350935   17.493675   20.730387 C.3        1 MOL1         0.1018
      34    H16     14.497881   16.938206   20.319536 H          1 MOL1         0.0783
      35    C11     16.062192   18.283512   19.591070 C.3        1 MOL1         0.1043
      36    H17     17.015049   18.662029   19.983791 H          1 MOL1         0.0783
      37    O9      15.230268   19.402847   19.189501 O.3        1 MOL1        -0.3740
      38    C12     16.403597   17.460807   18.321646 C.3        1 MOL1         0.0138
      39    H18     17.407856   17.037475   18.440518 H          1 MOL1         0.0794
      40    H19     16.452028   18.146423   17.465105 H          1 MOL1         0.0794
      41    O10     15.468910   16.409966   18.054005 O.3        1 MOL1        -0.5486
      42    H20     15.741564   15.644410   18.610236 H          1 MOL1         0.3769
      43    C13     18.504692   23.802739   22.301980 C.3        1 MOL1         0.2972
      44    H21     18.926293   24.728914   22.714263 H          1 MOL1         0.0751
      45    O11     19.537783   22.871283   21.928176 O.3        1 MOL1        -0.3740
      46    C14     17.598413   23.124539   23.354927 C.3        1 MOL1         0.1003
      47    H22     16.775831   23.816014   23.579157 H          1 MOL1         0.0783
      48    O12     18.335212   22.857165   24.559016 O.3        1 MOL1        -0.5519
      49    H23     19.292007   22.954593   24.337191 H          1 MOL1         0.3769
      50    C15     16.989746   21.821062   22.791135 C.3        1 MOL1         0.1053
      51    H24     17.806056   21.100118   22.647123 H          1 MOL1         0.0783
      52    O13     16.046618   21.301501   23.733694 O.3        1 MOL1        -0.5519
      53    H25     16.533400   21.280904   24.587750 H          1 MOL1         0.3769
      54    C16     16.306773   22.048710   21.417894 C.3        1 MOL1         0.1018
      55    H26     15.324958   22.513556   21.577511 H          1 MOL1         0.0783
      56    C17     17.163203   22.917189   20.451786 C.3        1 MOL1         0.1043
      57    H27     17.991323   22.291200   20.098976 H          1 MOL1         0.0783
      58    O14     17.709115   24.078339   21.130126 O.3        1 MOL1        -0.3740
      59    C18     16.391059   23.396827   19.199600 C.3        1 MOL1         0.0138
      60    H28     16.205775   22.529924   18.551087 H          1 MOL1         0.0794
      61    H29     17.029188   24.092628   18.638253 H          1 MOL1         0.0794
      62    O15     15.148315   24.023571   19.539483 O.3        1 MOL1        -0.5486
      63    H30     14.754730   24.374706   18.710920 H          1 MOL1         0.3769
      64    C19     23.669082   22.783949   21.391030 C.3        1 MOL1         0.2972
      65    H31     24.713844   23.040669   21.175345 H          1 MOL1         0.0751
      66    O16     23.525060   21.378395   21.693843 O.3        1 MOL1        -0.3740
      67    C20     23.170415   23.609607   22.605189 C.3        1 MOL1         0.1003
      68    H32     23.186776   24.664890   22.303889 H          1 MOL1         0.0783
      69    O17     24.043024   23.451406   23.732785 O.3        1 MOL1        -0.5519
      70    H33     23.837480   22.574162   24.152400 H          1 MOL1         0.3769
      71    C21     21.702359   23.234928   22.931340 C.3        1 MOL1         0.1053
      72    H34     21.658090   22.166903   23.179189 H          1 MOL1         0.0783
      73    O18     21.208177   24.006769   24.033007 O.3        1 MOL1        -0.5519
      74    H35     21.715146   23.689192   24.826722 H          1 MOL1         0.3769
      75    C22     20.827194   23.455105   21.674689 C.3        1 MOL1         0.1018
      76    H36     20.757393   24.532750   21.475713 H          1 MOL1         0.0783
      77    C23     21.419745   22.742553   20.427274 C.3        1 MOL1         0.1043
      78    H37     21.353111   21.659045   20.593165 H          1 MOL1         0.0783
      79    O19     22.815368   23.112045   20.269950 O.3        1 MOL1        -0.3740
      80    C24     20.666929   23.048552   19.104560 C.3        1 MOL1         0.0138
      81    H38     19.877929   22.297460   18.974024 H          1 MOL1         0.0794
      82    H39     21.363320   22.923873   18.264878 H          1 MOL1         0.0794
      83    O20     20.090616   24.360707   19.068548 O.3        1 MOL1        -0.5486
      84    H40     19.365731   24.383170   19.735262 H          1 MOL1         0.3769
      85    C25     24.920066   17.606384   20.582990 C.3        1 MOL1         0.2972
      86    H41     25.478102   16.752264   20.178357 H          1 MOL1         0.0751
      87    O21     23.609564   17.209539   21.041557 O.3        1 MOL1        -0.3740
      88    C26     25.702193   18.292245   21.734070 C.3        1 MOL1         0.1003
      89    H42     26.635907   18.678818   21.306026 H          1 MOL1         0.0783
      90    O22     26.028150   17.352314   22.769287 O.3        1 MOL1        -0.5519
      91    H43     25.181849   17.135996   23.233877 H          1 MOL1         0.3769
      92    C27     24.895501   19.501453   22.277521 C.3        1 MOL1         0.1053
      93    H44     23.972684   19.118321   22.733762 H          1 MOL1         0.0783
      94    O23     25.654435   20.209458   23.263012 O.3        1 MOL1        -0.5519
      95    H45     24.979156   20.580465   23.891084 H          1 MOL1         0.3769
      96    C28     24.503783   20.476262   21.131950 C.3        1 MOL1         0.1018
      97    H46     25.411508   21.008211   20.818915 H          1 MOL1         0.0783
      98    C29     23.885501   19.724446   19.911663 C.3        1 MOL1         0.1043
      99    H47     22.895368   19.353003   20.206811 H          1 MOL1         0.0783
     100    O24     24.732213   18.601968   19.557087 O.3        1 MOL1        -0.3740
     101    C30     23.685801   20.565037   18.624555 C.3        1 MOL1         0.0138
     102    H48     22.688264   21.016945   18.652170 H          1 MOL1         0.0794
     103    H49     23.694844   19.885946   17.761473 H          1 MOL1         0.0794
     104    O25     24.675224   21.584596   18.450929 O.3        1 MOL1        -0.5486
     105    H50     24.344162   22.375738   18.933422 H          1 MOL1         0.3769
     106    C31     21.250878   14.036850   22.186742 C.3        1 MOL1         0.2972
     107    H51     20.813239   13.082793   22.508377 H          1 MOL1         0.0751
     108    O26     20.240295   14.985629   21.797805 O.3        1 MOL1        -0.3740
     109    C32     22.078409   14.654364   23.337381 C.3        1 MOL1         0.1003
     110    H52     22.904606   13.965604   23.556847 H          1 MOL1         0.0783
     111    O27     21.275158   14.817626   24.517051 O.3        1 MOL1        -0.5519
     112    H53     20.330021   14.734928   24.239082 H          1 MOL1         0.3769
     113    C33     22.686251   16.006189   22.901099 C.3        1 MOL1         0.1053
     114    H54     21.864410   16.718029   22.746891 H          1 MOL1         0.0783
     115    O28     23.544880   16.480624   23.941824 O.3        1 MOL1        -0.5519
     116    H55     23.005182   16.409672   24.760952 H          1 MOL1         0.3769
     117    C34     23.468196   15.874205   21.567334 C.3        1 MOL1         0.1018
     118    H56     24.439404   15.404742   21.772415 H          1 MOL1         0.0783
     119    C35     22.696655   15.054708   20.490854 C.3        1 MOL1         0.1043
     120    H57     21.882041   15.687028   20.116018 H          1 MOL1         0.0783
     121    O29     22.129039   13.844805   21.058618 O.3        1 MOL1        -0.3740
     122    C36     23.563957   14.662791   19.270831 C.3        1 MOL1         0.0138
     123    H58     23.780269   15.570236   18.690979 H          1 MOL1         0.0794
     124    H59     22.978643   13.994980   18.624425 H          1 MOL1         0.0794
     125    O30     24.789842   14.031414   19.660216 O.3        1 MOL1        -0.5486
     126    H60     25.247322   13.738023   18.842098 H          1 MOL1         0.3769
     127    C1      22.462262   21.242345   25.511704 C.2        1 MOL1         0.6173
     128    O1      23.471468   20.950613   24.895726 O.co2      1 MOL1        -0.6755
     129    O2      22.331468   22.311931   26.074887 O.co2      1 MOL1        -0.6755
     130    C2      21.266714   20.360603   25.438894 C.2        1 MOL1        -0.1504
     131    H1      20.403685   20.709752   25.998909 H          1 MOL1         0.0814
     132    C3      21.215145   19.218100   24.712624 C.2        1 MOL1        -0.1394
     133    H2      22.090029   18.897299   24.149574 H          1 MOL1         0.0817
     134    C4      20.010841   18.299522   24.580025 C.3        1 MOL1        -0.1849
     135    H3      20.175464   17.392650   25.176495 H          1 MOL1         0.0736
     136    H4      19.935189   17.969702   23.535509 H          1 MOL1         0.0736
     137    C5      18.670268   18.946404   24.996933 C.3        1 MOL1        -0.1866
     138    H5      18.674888   19.148882   26.076369 H          1 MOL1         0.0738
     139    H6      18.556274   19.911905   24.488944 H          1 MOL1         0.0738
     140    C6      17.466860   18.047264   24.655095 C.3        1 MOL1        -0.2879
     141    H7      17.546071   17.074171   25.156736 H          1 MOL1         0.0750
     142    H8      16.527281   18.518686   24.970552 H          1 MOL1         0.0750
     143    H9      17.411844   17.876811   23.574127 H          1 MOL1         0.0750
@<TRIPOS>BOND
    1     1     2    1
    2     1     3    1
    3     1     4    1
    4     4     5    1
    5     4     6    1
    6     6     7    1
    7     4     8    1
    8     8     9    1
    9     8    10    1
   10    10    11    1
   11     8    12    1
   12    12    13    1
   13    12    14    1
   14    14    15    1
   15     1    16    1
   16    14    16    1
   17    14    17    1
   18    17    18    1
   19    17    19    1
   20    17    20    1
   21    20    21    1
   22    22    23    1
   23    22    24    1
   24    22    25    1
   25    25    26    1
   26    25    27    1
   27    27    28    1
   28    25    29    1
   29    29    30    1
   30    29    31    1
   31    31    32    1
   32     3    33    1
   33    29    33    1
   34    33    34    1
   35    33    35    1
   36    35    36    1
   37    22    37    1
   38    35    37    1
   39    35    38    1
   40    38    39    1
   41    38    40    1
   42    38    41    1
   43    41    42    1
   44    43    44    1
   45    43    45    1
   46    43    46    1
   47    46    47    1
   48    46    48    1
   49    48    49    1
   50    46    50    1
   51    50    51    1
   52    50    52    1
   53    52    53    1
   54    24    54    1
   55    50    54    1
   56    54    55    1
   57    54    56    1
   58    56    57    1
   59    43    58    1
   60    56    58    1
   61    56    59    1
   62    59    60    1
   63    59    61    1
   64    59    62    1
   65    62    63    1
   66    64    65    1
   67    64    66    1
   68    64    67    1
   69    67    68    1
   70    67    69    1
   71    69    70    1
   72    67    71    1
   73    71    72    1
   74    71    73    1
   75    73    74    1
   76    45    75    1
   77    71    75    1
   78    75    76    1
   79    75    77    1
   80    77    78    1
   81    64    79    1
   82    77    79    1
   83    77    80    1
   84    80    81    1
   85    80    82    1
   86    80    83    1
   87    83    84    1
   88    85    86    1
   89    85    87    1
   90    85    88    1
   91    88    89    1
   92    88    90    1
   93    90    91    1
   94    88    92    1
   95    92    93    1
   96    92    94    1
   97    94    95    1
   98    66    96    1
   99    92    96    1
  100    96    97    1
  101    96    98    1
  102    98    99    1
  103    85   100    1
  104    98   100    1
  105    98   101    1
  106   101   102    1
  107   101   103    1
  108   101   104    1
  109   104   105    1
  110   106   107    1
  111    12   108    1
  112   106   108    1
  113   106   109    1
  114   109   110    1
  115   109   111    1
  116   111   112    1
  117   109   113    1
  118   113   114    1
  119   113   115    1
  120   115   116    1
  121    87   117    1
  122   113   117    1
  123   117   118    1
  124   117   119    1
  125   119   120    1
  126   106   121    1
  127   119   121    1
  128   119   122    1
  129   122   123    1
  130   122   124    1
  131   122   125    1
  132   125   126    1
  133   127   128    1
  134   127   129    2
  135   127   130    1
  136   130   131    1
  137   130   132    2
  138   132   133    1
  139   132   134    1
  140   134   135    1
  141   134   136    1
  142   134   137    1
  143   137   138    1
  144   137   139    1
  145   137   140    1
  146   140   141    1
  147   140   142    1
  148   140   143    1
@<TRIPOS>SUBSTRUCTURE
       1 MOL1            1 RESIDUE      1      MOL     
       2 MOL1          143 RESIDUE      1      MOL     
@<SCITEGIC>MOL_PROPERTY
feprocess Rank
SciTegic.value.IntegerValue
140

@<SCITEGIC>MOL_PROPERTY
Conf_Id
SciTegic.value.IntegerValue
46

@<SCITEGIC>MOL_PROPERTY
Probability
SciTegic.value.DoubleValue
0.00

@<SCITEGIC>MOL_PROPERTY
G
SciTegic.value.DoubleValue
503.153

@<SCITEGIC>MOL_PROPERTY
E
SciTegic.value.DoubleValue
320.254

@<SCITEGIC>MOL_PROPERTY
-TS
SciTegic.value.DoubleValue
182.899

@<SCITEGIC>MOL_PROPERTY
U+W
SciTegic.value.DoubleValue
194.165

@<SCITEGIC>MOL_PROPERTY
U
SciTegic.value.DoubleValue
269.413

@<SCITEGIC>MOL_PROPERTY
W
SciTegic.value.DoubleValue
-75.247

@<SCITEGIC>MOL_PROPERTY
W(PB)
SciTegic.value.DoubleValue
-81.355

@<SCITEGIC>MOL_PROPERTY
W(SA)
SciTegic.value.DoubleValue
6.108

@<SCITEGIC>MOL_PROPERTY
Valence
SciTegic.value.DoubleValue
151.256

@<SCITEGIC>MOL_PROPERTY
Coulomb
SciTegic.value.DoubleValue
136.656

@<SCITEGIC>MOL_PROPERTY
VdW
SciTegic.value.DoubleValue
-18.500

@<SCITEGIC>MOL_PROPERTY
VdW6
SciTegic.value.DoubleValue
-177.652

@<SCITEGIC>MOL_PROPERTY
VdW12
SciTegic.value.DoubleValue
159.152

@<SCITEGIC>MOL_PROPERTY
Bond
SciTegic.value.DoubleValue
5.178

@<SCITEGIC>MOL_PROPERTY
Angle
SciTegic.value.DoubleValue
15.296

@<SCITEGIC>MOL_PROPERTY
Pdih
SciTegic.value.DoubleValue
130.732

@<SCITEGIC>MOL_PROPERTY
Idih
SciTegic.value.DoubleValue
0.050

@<SCITEGIC>MOL_PROPERTY
Tether
SciTegic.value.DoubleValue
0.000

@<TRIPOS>MOLECULE
CD_guest-s19_fast_vm2_rndm.mol2 : feprocess host+ligand conformer 141
         143         148           2
SMALL
USER_CHARGES
 
@<TRIPOS>ATOM
       1    C1      16.268735   15.271392   20.688070 C.3        1 MOL1         0.2972
       2    H1      15.226451   15.261553   20.344751 H          1 MOL1         0.0751
       3    O1      16.661831   16.581003   21.147642 O.3        1 MOL1        -0.3740
       4    C2      16.488500   14.238105   21.820817 C.3        1 MOL1         0.1003
       5    H2      16.247087   13.249508   21.409851 H          1 MOL1         0.0783
       6    O2      15.613309   14.507577   22.928278 O.3        1 MOL1        -0.5519
       7    H3      15.895575   15.373457   23.315192 H          1 MOL1         0.3769
       8    C3      17.976121   14.216927   22.262150 C.3        1 MOL1         0.1053
       9    H4      18.189663   15.167349   22.769994 H          1 MOL1         0.0783
      10    O3      18.195002   13.125774   23.163439 O.3        1 MOL1        -0.5519
      11    H5      18.900965   13.429055   23.793311 H          1 MOL1         0.3769
      12    C4      18.948680   14.080963   21.054918 C.3        1 MOL1         0.1018
      13    H6      18.919488   13.035771   20.720776 H          1 MOL1         0.0783
      14    C5      18.563305   15.023789   19.870788 C.3        1 MOL1         0.1043
      15    H7      18.795468   16.055408   20.165903 H          1 MOL1         0.0783
      16    O4      17.144555   14.908087   19.604984 O.3        1 MOL1        -0.3740
      17    C6      19.285185   14.765456   18.523418 C.3        1 MOL1         0.0138
      18    H8      20.192651   15.376997   18.488379 H          1 MOL1         0.0794
      19    H9      18.640548   15.124851   17.710075 H          1 MOL1         0.0794
      20    O5      19.615673   13.389777   18.306965 O.3        1 MOL1        -0.5486
      21    H10     20.518650   13.261261   18.673788 H          1 MOL1         0.3769
      22    C7      15.148564   20.317230   22.106102 C.3        1 MOL1         0.2972
      23    H11     14.521111   21.168707   22.400527 H          1 MOL1         0.0751
      24    O6      16.458385   20.760429   21.695998 O.3        1 MOL1        -0.3740
      25    C8      15.290699   19.336962   23.297782 C.3        1 MOL1         0.1003
      26    H12     14.284005   18.973321   23.542012 H          1 MOL1         0.0783
      27    O7      15.838244   19.996414   24.447169 O.3        1 MOL1        -0.5519
      28    H13     16.662322   20.443677   24.154090 H          1 MOL1         0.3769
      29    C9      16.155044   18.116207   22.911930 C.3        1 MOL1         0.1053
      30    H14     17.178324   18.464128   22.712884 H          1 MOL1         0.0783
      31    O8      16.161365   17.182024   23.996641 O.3        1 MOL1        -0.5519
      32    H15     16.315919   17.725605   24.800820 H          1 MOL1         0.3769
      33    C10     15.609919   17.438828   21.631839 C.3        1 MOL1         0.1018
      34    H16     14.701738   16.876838   21.888087 H          1 MOL1         0.0783
      35    C11     15.306394   18.462851   20.502760 C.3        1 MOL1         0.1043
      36    H17     16.273826   18.815254   20.131834 H          1 MOL1         0.0783
      37    O9      14.551786   19.598249   21.004128 O.3        1 MOL1        -0.3740
      38    C12     14.539104   17.857327   19.302153 C.3        1 MOL1         0.0138
      39    H18     15.215338   17.184067   18.758227 H          1 MOL1         0.0794
      40    H19     14.264226   18.666228   18.612372 H          1 MOL1         0.0794
      41    O10     13.370011   17.141295   19.717983 O.3        1 MOL1        -0.5486
      42    H20     12.887153   16.862640   18.909391 H          1 MOL1         0.3769
      43    C13     18.553352   23.972216   20.215470 C.3        1 MOL1         0.2972
      44    H21     18.970578   24.856430   19.716568 H          1 MOL1         0.0751
      45    O11     19.584110   23.155406   20.808296 O.3        1 MOL1        -0.3740
      46    C14     17.507291   24.363060   21.290122 C.3        1 MOL1         0.1003
      47    H22     16.666893   24.834971   20.764418 H          1 MOL1         0.0783
      48    O12     18.037270   25.296937   22.242103 O.3        1 MOL1        -0.5519
      49    H23     18.779295   24.841163   22.713931 H          1 MOL1         0.3769
      50    C15     16.971084   23.096115   22.000339 C.3        1 MOL1         0.1053
      51    H24     17.793811   22.668894   22.586589 H          1 MOL1         0.0783
      52    O13     15.897831   23.465582   22.871363 O.3        1 MOL1        -0.5519
      53    H25     16.227678   24.241064   23.376294 H          1 MOL1         0.3769
      54    C16     16.485613   22.020211   20.988337 C.3        1 MOL1         0.1018
      55    H26     15.486841   22.313869   20.640871 H          1 MOL1         0.0783
      56    C17     17.426739   21.849194   19.754511 C.3        1 MOL1         0.1043
      57    H27     18.309638   21.281201   20.076387 H          1 MOL1         0.0783
      58    O14     17.849963   23.147122   19.264833 O.3        1 MOL1        -0.3740
      59    C18     16.812382   21.073676   18.558247 C.3        1 MOL1         0.0138
      60    H28     17.085043   20.015906   18.646784 H          1 MOL1         0.0794
      61    H29     17.282816   21.432776   17.633031 H          1 MOL1         0.0794
      62    O15     15.388346   21.206401   18.459518 O.3        1 MOL1        -0.5486
      63    H30     14.993538   20.773524   19.251512 H          1 MOL1         0.3769
      64    C19     23.432612   22.815445   22.108272 C.3        1 MOL1         0.2972
      65    H31     24.472851   22.914867   22.444549 H          1 MOL1         0.0751
      66    O16     23.066865   21.436928   21.897522 O.3        1 MOL1        -0.3740
      67    C20     22.480914   23.420980   23.164299 C.3        1 MOL1         0.1003
      68    H32     22.708516   24.492363   23.238784 H          1 MOL1         0.0783
      69    O17     22.679400   22.804943   24.446752 O.3        1 MOL1        -0.5519
      70    H33     23.137916   21.943081   24.287291 H          1 MOL1         0.3769
      71    C21     21.010691   23.274703   22.716711 C.3        1 MOL1         0.1053
      72    H34     20.757605   22.205456   22.736416 H          1 MOL1         0.0783
      73    O18     20.177741   23.985103   23.637136 O.3        1 MOL1        -0.5519
      74    H35     20.491072   23.700311   24.524645 H          1 MOL1         0.3769
      75    C22     20.783712   23.799977   21.274383 C.3        1 MOL1         0.1018
      76    H36     20.685554   24.893273   21.302094 H          1 MOL1         0.0783
      77    C23     21.906675   23.381423   20.279391 C.3        1 MOL1         0.1043
      78    H37     21.746147   22.325062   20.030416 H          1 MOL1         0.0783
      79    O19     23.224813   23.524643   20.870084 O.3        1 MOL1        -0.3740
      80    C24     21.874852   24.168364   18.947787 C.3        1 MOL1         0.0138
      81    H38     20.985371   23.859691   18.382047 H          1 MOL1         0.0794
      82    H39     22.754042   23.886865   18.352612 H          1 MOL1         0.0794
      83    O20     21.848504   25.585254   19.159036 O.3        1 MOL1        -0.5486
      84    H40     21.907098   26.019117   18.279762 H          1 MOL1         0.3769
      85    C25     24.912533   17.687348   21.668965 C.3        1 MOL1         0.2972
      86    H41     25.663431   16.895248   21.554090 H          1 MOL1         0.0751
      87    O21     23.585665   17.146799   21.809259 O.3        1 MOL1        -0.3740
      88    C26     25.221164   18.519313   22.940026 C.3        1 MOL1         0.1003
      89    H42     26.226120   18.944550   22.820583 H          1 MOL1         0.0783
      90    O22     25.197646   17.687064   24.110182 O.3        1 MOL1        -0.5519
      91    H43     24.562775   16.949551   23.929081 H          1 MOL1         0.3769
      92    C27     24.222732   19.690451   23.089146 C.3        1 MOL1         0.1053
      93    H44     23.225713   19.270067   23.276183 H          1 MOL1         0.0783
      94    O23     24.618259   20.519257   24.186528 O.3        1 MOL1        -0.5519
      95    H45     24.836953   19.890093   24.910284 H          1 MOL1         0.3769
      96    C28     24.166461   20.517524   21.783240 C.3        1 MOL1         0.1018
      97    H46     25.124886   21.037082   21.651173 H          1 MOL1         0.0783
      98    C29     23.910887   19.615221   20.546661 C.3        1 MOL1         0.1043
      99    H47     22.913662   19.167526   20.649785 H          1 MOL1         0.0783
     100    O24     24.912196   18.565071   20.519457 O.3        1 MOL1        -0.3740
     101    C30     23.932516   20.365696   19.189111 C.3        1 MOL1         0.0138
     102    H48     22.918152   20.726021   18.976438 H          1 MOL1         0.0794
     103    H49     24.187323   19.649847   18.396205 H          1 MOL1         0.0794
     104    O25     24.845261   21.470342   19.166935 O.3        1 MOL1        -0.5486
     105    H50     24.452382   22.184524   19.720663 H          1 MOL1         0.3769
     106    C31     21.385756   13.671383   21.092181 C.3        1 MOL1         0.2972
     107    H51     21.082055   12.658073   20.800920 H          1 MOL1         0.0751
     108    O26     20.255210   14.438039   21.564898 O.3        1 MOL1        -0.3740
     109    C32     22.440761   13.589776   22.226313 C.3        1 MOL1         0.1003
     110    H52     23.314514   13.068476   21.814770 H          1 MOL1         0.0783
     111    O27     21.946320   12.830580   23.341168 O.3        1 MOL1        -0.5519
     112    H53     21.299457   13.395136   23.840107 H          1 MOL1         0.3769
     113    C33     22.892874   15.014516   22.633074 C.3        1 MOL1         0.1053
     114    H54     22.020220   15.566857   22.996330 H          1 MOL1         0.0783
     115    O28     23.894718   14.969168   23.655745 O.3        1 MOL1        -0.5519
     116    H55     23.392473   14.784787   24.493320 H          1 MOL1         0.3769
     117    C34     23.415720   15.778031   21.398362 C.3        1 MOL1         0.1018
     118    H56     24.357779   15.317133   21.073654 H          1 MOL1         0.0783
     119    C35     22.384611   15.741451   20.236113 C.3        1 MOL1         0.1043
     120    H57     21.497908   16.307516   20.551173 H          1 MOL1         0.0783
     121    O29     21.998681   14.364733   19.978852 O.3        1 MOL1        -0.3740
     122    C36     22.884871   16.380180   18.913111 C.3        1 MOL1         0.0138
     123    H58     22.653680   17.452760   18.937048 H          1 MOL1         0.0794
     124    H59     22.319350   15.950628   18.076364 H          1 MOL1         0.0794
     125    O30     24.287986   16.201708   18.691207 O.3        1 MOL1        -0.5486
     126    H60     24.747371   16.904438   19.206224 H          1 MOL1         0.3769
     127    C1      20.756453   15.235355   25.204783 C.2        1 MOL1         0.6173
     128    O1      20.060372   14.286672   24.898466 O.co2      1 MOL1        -0.6755
     129    O2      21.874405   15.101222   25.667252 O.co2      1 MOL1        -0.6755
     130    C2      20.284890   16.586855   24.798102 C.2        1 MOL1        -0.1504
     131    H1      19.299158   16.628669   24.341226 H          1 MOL1         0.0814
     132    C3      21.018776   17.713646   24.942930 C.2        1 MOL1        -0.1394
     133    H2      22.012742   17.676975   25.388345 H          1 MOL1         0.0817
     134    C4      20.555346   19.083337   24.496041 C.3        1 MOL1        -0.1849
     135    H3      20.323035   19.067165   23.422795 H          1 MOL1         0.0736
     136    H4      21.371593   19.805760   24.628986 H          1 MOL1         0.0736
     137    C5      19.322793   19.562221   25.289881 C.3        1 MOL1        -0.1866
     138    H5      18.477303   18.885144   25.111201 H          1 MOL1         0.0738
     139    H6      19.540570   19.524394   26.366027 H          1 MOL1         0.0738
     140    C6      18.932389   20.998928   24.897541 C.3        1 MOL1        -0.2879
     141    H7      19.754845   21.690661   25.116673 H          1 MOL1         0.0750
     142    H8      18.707715   21.060075   23.826150 H          1 MOL1         0.0750
     143    H9      18.053890   21.336284   25.461929 H          1 MOL1         0.0750
@<TRIPOS>BOND
    1     1     2    1
    2     1     3    1
    3     1     4    1
    4     4     5    1
    5     4     6    1
    6     6     7    1
    7     4     8    1
    8     8     9    1
    9     8    10    1
   10    10    11    1
   11     8    12    1
   12    12    13    1
   13    12    14    1
   14    14    15    1
   15     1    16    1
   16    14    16    1
   17    14    17    1
   18    17    18    1
   19    17    19    1
   20    17    20    1
   21    20    21    1
   22    22    23    1
   23    22    24    1
   24    22    25    1
   25    25    26    1
   26    25    27    1
   27    27    28    1
   28    25    29    1
   29    29    30    1
   30    29    31    1
   31    31    32    1
   32     3    33    1
   33    29    33    1
   34    33    34    1
   35    33    35    1
   36    35    36    1
   37    22    37    1
   38    35    37    1
   39    35    38    1
   40    38    39    1
   41    38    40    1
   42    38    41    1
   43    41    42    1
   44    43    44    1
   45    43    45    1
   46    43    46    1
   47    46    47    1
   48    46    48    1
   49    48    49    1
   50    46    50    1
   51    50    51    1
   52    50    52    1
   53    52    53    1
   54    24    54    1
   55    50    54    1
   56    54    55    1
   57    54    56    1
   58    56    57    1
   59    43    58    1
   60    56    58    1
   61    56    59    1
   62    59    60    1
   63    59    61    1
   64    59    62    1
   65    62    63    1
   66    64    65    1
   67    64    66    1
   68    64    67    1
   69    67    68    1
   70    67    69    1
   71    69    70    1
   72    67    71    1
   73    71    72    1
   74    71    73    1
   75    73    74    1
   76    45    75    1
   77    71    75    1
   78    75    76    1
   79    75    77    1
   80    77    78    1
   81    64    79    1
   82    77    79    1
   83    77    80    1
   84    80    81    1
   85    80    82    1
   86    80    83    1
   87    83    84    1
   88    85    86    1
   89    85    87    1
   90    85    88    1
   91    88    89    1
   92    88    90    1
   93    90    91    1
   94    88    92    1
   95    92    93    1
   96    92    94    1
   97    94    95    1
   98    66    96    1
   99    92    96    1
  100    96    97    1
  101    96    98    1
  102    98    99    1
  103    85   100    1
  104    98   100    1
  105    98   101    1
  106   101   102    1
  107   101   103    1
  108   101   104    1
  109   104   105    1
  110   106   107    1
  111    12   108    1
  112   106   108    1
  113   106   109    1
  114   109   110    1
  115   109   111    1
  116   111   112    1
  117   109   113    1
  118   113   114    1
  119   113   115    1
  120   115   116    1
  121    87   117    1
  122   113   117    1
  123   117   118    1
  124   117   119    1
  125   119   120    1
  126   106   121    1
  127   119   121    1
  128   119   122    1
  129   122   123    1
  130   122   124    1
  131   122   125    1
  132   125   126    1
  133   127   128    1
  134   127   129    2
  135   127   130    1
  136   130   131    1
  137   130   132    2
  138   132   133    1
  139   132   134    1
  140   134   135    1
  141   134   136    1
  142   134   137    1
  143   137   138    1
  144   137   139    1
  145   137   140    1
  146   140   141    1
  147   140   142    1
  148   140   143    1
@<TRIPOS>SUBSTRUCTURE
       1 MOL1            1 RESIDUE      1      MOL     
       2 MOL1          143 RESIDUE      1      MOL     
@<SCITEGIC>MOL_PROPERTY
feprocess Rank
SciTegic.value.IntegerValue
141

@<SCITEGIC>MOL_PROPERTY
Conf_Id
SciTegic.value.IntegerValue
813

@<SCITEGIC>MOL_PROPERTY
Probability
SciTegic.value.DoubleValue
0.00

@<SCITEGIC>MOL_PROPERTY
G
SciTegic.value.DoubleValue
503.251

@<SCITEGIC>MOL_PROPERTY
E
SciTegic.value.DoubleValue
320.263

@<SCITEGIC>MOL_PROPERTY
-TS
SciTegic.value.DoubleValue
182.987

@<SCITEGIC>MOL_PROPERTY
U+W
SciTegic.value.DoubleValue
194.175

@<SCITEGIC>MOL_PROPERTY
U
SciTegic.value.DoubleValue
269.984

@<SCITEGIC>MOL_PROPERTY
W
SciTegic.value.DoubleValue
-75.809

@<SCITEGIC>MOL_PROPERTY
W(PB)
SciTegic.value.DoubleValue
-81.843

@<SCITEGIC>MOL_PROPERTY
W(SA)
SciTegic.value.DoubleValue
6.034

@<SCITEGIC>MOL_PROPERTY
Valence
SciTegic.value.DoubleValue
150.775

@<SCITEGIC>MOL_PROPERTY
Coulomb
SciTegic.value.DoubleValue
137.903

@<SCITEGIC>MOL_PROPERTY
VdW
SciTegic.value.DoubleValue
-18.694

@<SCITEGIC>MOL_PROPERTY
VdW6
SciTegic.value.DoubleValue
-175.847

@<SCITEGIC>MOL_PROPERTY
VdW12
SciTegic.value.DoubleValue
157.153

@<SCITEGIC>MOL_PROPERTY
Bond
SciTegic.value.DoubleValue
5.179

@<SCITEGIC>MOL_PROPERTY
Angle
SciTegic.value.DoubleValue
15.063

@<SCITEGIC>MOL_PROPERTY
Pdih
SciTegic.value.DoubleValue
130.471

@<SCITEGIC>MOL_PROPERTY
Idih
SciTegic.value.DoubleValue
0.062

@<SCITEGIC>MOL_PROPERTY
Tether
SciTegic.value.DoubleValue
0.000

@<TRIPOS>MOLECULE
CD_guest-s19_fast_vm2_rndm.mol2 : feprocess host+ligand conformer 142
         143         148           2
SMALL
USER_CHARGES
 
@<TRIPOS>ATOM
       1    C1      16.327519   15.434104   20.196930 C.3        1 MOL1         0.2972
       2    H1      15.342362   15.446575   19.713440 H          1 MOL1         0.0751
       3    O1      16.621144   16.699109   20.829888 O.3        1 MOL1        -0.3740
       4    C2      16.426078   14.286423   21.236474 C.3        1 MOL1         0.1003
       5    H2      16.297114   13.340846   20.694584 H          1 MOL1         0.0783
       6    O2      15.389562   14.402390   22.224121 O.3        1 MOL1        -0.5519
       7    H3      15.604015   15.198445   22.771417 H          1 MOL1         0.3769
       8    C3      17.834701   14.276622   21.885346 C.3        1 MOL1         0.1053
       9    H4      17.924829   15.198752   22.465430 H          1 MOL1         0.0783
      10    O3      17.986151   13.154079   22.760933 O.3        1 MOL1        -0.5519
      11    H5      18.460733   13.508510   23.557967 H          1 MOL1         0.3769
      12    C4      18.967863   14.266428   20.821087 C.3        1 MOL1         0.1018
      13    H6      19.015634   13.257953   20.390439 H          1 MOL1         0.0783
      14    C5      18.720583   15.311030   19.688665 C.3        1 MOL1         0.1043
      15    H7      18.876261   16.312837   20.110404 H          1 MOL1         0.0783
      16    O4      17.355511   15.196626   19.214617 O.3        1 MOL1        -0.3740
      17    C6      19.643453   15.198252   18.448045 C.3        1 MOL1         0.0138
      18    H8      20.518272   15.838428   18.603669 H          1 MOL1         0.0794
      19    H9      19.110281   15.608522   17.579958 H          1 MOL1         0.0794
      20    O5      20.065361   13.859050   18.169898 O.3        1 MOL1        -0.5486
      21    H10     20.838015   13.683615   18.755121 H          1 MOL1         0.3769
      22    C7      14.934097   20.247109   22.151831 C.3        1 MOL1         0.2972
      23    H11     14.261999   21.041953   22.501097 H          1 MOL1         0.0751
      24    O6      16.264664   20.753138   21.930420 O.3        1 MOL1        -0.3740
      25    C8      15.009982   19.123778   23.214178 C.3        1 MOL1         0.1003
      26    H12     13.995111   18.728783   23.352717 H          1 MOL1         0.0783
      27    O7      15.489535   19.649449   24.460540 O.3        1 MOL1        -0.5519
      28    H13     16.144157   20.346030   24.229701 H          1 MOL1         0.3769
      29    C9      15.913834   17.963850   22.737749 C.3        1 MOL1         0.1053
      30    H14     16.946724   18.334229   22.685719 H          1 MOL1         0.0783
      31    O8      15.827882   16.890484   23.680295 O.3        1 MOL1        -0.5519
      32    H15     15.960278   17.311465   24.558575 H          1 MOL1         0.3769
      33    C10     15.506817   17.466905   21.328423 C.3        1 MOL1         0.1018
      34    H16     14.591795   16.865420   21.411347 H          1 MOL1         0.0783
      35    C11     15.289717   18.638986   20.332093 C.3        1 MOL1         0.1043
      36    H17     16.278425   19.056627   20.112383 H          1 MOL1         0.0783
      37    O9      14.456344   19.675537   20.914910 O.3        1 MOL1        -0.3740
      38    C12     14.661057   18.203214   18.986606 C.3        1 MOL1         0.0138
      39    H18     15.405089   17.621595   18.425714 H          1 MOL1         0.0794
      40    H19     14.436776   19.100562   18.394490 H          1 MOL1         0.0794
      41    O10     13.474992   17.421985   19.175078 O.3        1 MOL1        -0.5486
      42    H20     13.083799   17.254837   18.289896 H          1 MOL1         0.3769
      43    C13     18.399821   24.217550   21.179871 C.3        1 MOL1         0.2972
      44    H21     18.749278   25.219986   20.901537 H          1 MOL1         0.0751
      45    O11     19.494427   23.371310   21.583911 O.3        1 MOL1        -0.3740
      46    C14     17.420334   24.317665   22.373809 C.3        1 MOL1         0.1003
      47    H22     16.574369   24.942652   22.059407 H          1 MOL1         0.0783
      48    O12     18.076310   24.927385   23.496277 O.3        1 MOL1        -0.5519
      49    H23     19.008186   24.601971   23.482367 H          1 MOL1         0.3769
      50    C15     16.871223   22.924660   22.765535 C.3        1 MOL1         0.1053
      51    H24     17.694416   22.356471   23.213002 H          1 MOL1         0.0783
      52    O13     15.825659   23.081102   23.729081 O.3        1 MOL1        -0.5519
      53    H25     16.186586   23.697127   24.404208 H          1 MOL1         0.3769
      54    C16     16.345010   22.138130   21.535998 C.3        1 MOL1         0.1018
      55    H26     15.364204   22.546074   21.258784 H          1 MOL1         0.0783
      56    C17     17.298504   22.217241   20.309405 C.3        1 MOL1         0.1043
      57    H27     18.186404   21.613327   20.536974 H          1 MOL1         0.0783
      58    O14     17.701725   23.591328   20.084183 O.3        1 MOL1        -0.3740
      59    C18     16.704627   21.670245   18.983113 C.3        1 MOL1         0.0138
      60    H28     16.985391   20.615628   18.881255 H          1 MOL1         0.0794
      61    H29     17.178043   22.197894   18.144287 H          1 MOL1         0.0794
      62    O15     15.280658   21.804576   18.895315 O.3        1 MOL1        -0.5486
      63    H30     14.884245   21.187650   19.554194 H          1 MOL1         0.3769
      64    C19     23.521469   22.566012   20.796702 C.3        1 MOL1         0.2972
      65    H31     24.556966   22.615974   20.436265 H          1 MOL1         0.0751
      66    O16     23.234898   21.295710   21.413251 O.3        1 MOL1        -0.3740
      67    C20     23.242367   23.689358   21.828396 C.3        1 MOL1         0.1003
      68    H32     23.447961   24.646335   21.331541 H          1 MOL1         0.0783
      69    O17     24.097163   23.561909   22.976444 O.3        1 MOL1        -0.5519
      70    H33     24.022293   22.627781   23.299352 H          1 MOL1         0.3769
      71    C21     21.755591   23.688811   22.261882 C.3        1 MOL1         0.1053
      72    H34     21.573872   22.775136   22.840557 H          1 MOL1         0.0783
      73    O18     21.496485   24.837758   23.076455 O.3        1 MOL1        -0.5519
      74    H35     22.230956   24.860970   23.728770 H          1 MOL1         0.3769
      75    C22     20.796621   23.677708   21.044370 C.3        1 MOL1         0.1018
      76    H36     20.824417   24.669566   20.574649 H          1 MOL1         0.0783
      77    C23     21.201858   22.588850   20.005969 C.3        1 MOL1         0.1043
      78    H37     21.030968   21.601964   20.456624 H          1 MOL1         0.0783
      79    O19     22.607970   22.739701   19.694650 O.3        1 MOL1        -0.3740
      80    C24     20.432103   22.616201   18.660425 C.3        1 MOL1         0.0138
      81    H38     19.555056   21.965278   18.743575 H          1 MOL1         0.0794
      82    H39     21.072898   22.175121   17.885200 H          1 MOL1         0.0794
      83    O20     20.025109   23.930122   18.264084 O.3        1 MOL1        -0.5486
      84    H40     19.180735   24.115189   18.735929 H          1 MOL1         0.3769
      85    C25     24.959368   17.617702   22.199356 C.3        1 MOL1         0.2972
      86    H41     25.632176   16.775213   22.404945 H          1 MOL1         0.0751
      87    O21     23.598637   17.180636   22.026593 O.3        1 MOL1        -0.3740
      88    C26     25.006160   18.622706   23.376044 C.3        1 MOL1         0.1003
      89    H42     26.037647   18.989686   23.456088 H          1 MOL1         0.0783
      90    O22     24.636852   17.978752   24.605284 O.3        1 MOL1        -0.5519
      91    H43     24.047260   17.220930   24.368059 H          1 MOL1         0.3769
      92    C27     24.088879   19.836480   23.104005 C.3        1 MOL1         0.1053
      93    H44     23.050384   19.484875   23.122056 H          1 MOL1         0.0783
      94    O23     24.284449   20.819631   24.126205 O.3        1 MOL1        -0.5519
      95    H45     24.228014   20.319091   24.970301 H          1 MOL1         0.3769
      96    C28     24.371419   20.462718   21.716626 C.3        1 MOL1         0.1018
      97    H46     25.300298   21.044748   21.784459 H          1 MOL1         0.0783
      98    C29     24.489061   19.399021   20.586339 C.3        1 MOL1         0.1043
      99    H47     23.482069   19.007322   20.394096 H          1 MOL1         0.0783
     100    O24     25.355021   18.308067   20.996456 O.3        1 MOL1        -0.3740
     101    C30     25.024882   19.963468   19.248667 C.3        1 MOL1         0.0138
     102    H48     24.248530   20.597917   18.800261 H          1 MOL1         0.0794
     103    H49     25.198178   19.126068   18.559406 H          1 MOL1         0.0794
     104    O25     26.229161   20.719636   19.425970 O.3        1 MOL1        -0.5486
     105    H50     26.555594   20.973307   18.535173 H          1 MOL1         0.3769
     106    C31     21.326488   13.749940   21.313890 C.3        1 MOL1         0.2972
     107    H51     21.011354   12.726391   21.074817 H          1 MOL1         0.0751
     108    O26     20.183999   14.609011   21.525128 O.3        1 MOL1        -0.3740
     109    C32     22.188788   13.736832   22.603775 C.3        1 MOL1         0.1003
     110    H52     23.075157   13.125153   22.392542 H          1 MOL1         0.0783
     111    O27     21.474296   13.139642   23.699694 O.3        1 MOL1        -0.5519
     112    H53     20.804601   13.790661   24.032393 H          1 MOL1         0.3769
     113    C33     22.672865   15.170055   22.931411 C.3        1 MOL1         0.1053
     114    H54     21.791481   15.793555   23.088300 H          1 MOL1         0.0783
     115    O28     23.486135   15.190737   24.109112 O.3        1 MOL1        -0.5519
     116    H55     22.833880   15.120323   24.853871 H          1 MOL1         0.3769
     117    C34     23.420674   15.782488   21.729969 C.3        1 MOL1         0.1018
     118    H56     24.374048   15.255389   21.593672 H          1 MOL1         0.0783
     119    C35     22.569429   15.676110   20.435222 C.3        1 MOL1         0.1043
     120    H57     21.685138   16.314479   20.564154 H          1 MOL1         0.0783
     121    O29     22.136218   14.301504   20.246889 O.3        1 MOL1        -0.3740
     122    C36     23.295017   16.155502   19.149558 C.3        1 MOL1         0.0138
     123    H58     23.098395   17.227062   19.019154 H          1 MOL1         0.0794
     124    H59     22.853276   15.643839   18.284243 H          1 MOL1         0.0794
     125    O30     24.709425   15.931484   19.177557 O.3        1 MOL1        -0.5486
     126    H60     25.099104   16.623897   19.760875 H          1 MOL1         0.3769
     127    C1      19.937163   15.691801   24.915230 C.2        1 MOL1         0.6173
     128    O1      21.002727   15.675529   25.503969 O.co2      1 MOL1        -0.6755
     129    O2      19.231378   14.704722   24.825561 O.co2      1 MOL1        -0.6755
     130    C2      19.590862   16.854292   24.051094 C.2        1 MOL1        -0.1504
     131    H1      18.628037   16.809619   23.556756 H          1 MOL1         0.0814
     132    C3      20.422021   17.889398   23.800108 C.2        1 MOL1        -0.1394
     133    H2      21.404685   17.944377   24.267579 H          1 MOL1         0.0817
     134    C4      20.105107   18.984050   22.804332 C.3        1 MOL1        -0.1849
     135    H3      19.421619   18.601677   22.034459 H          1 MOL1         0.0736
     136    H4      21.018465   19.277730   22.272913 H          1 MOL1         0.0736
     137    C5      19.476030   20.225882   23.461586 C.3        1 MOL1        -0.1866
     138    H5      19.310106   20.974502   22.679272 H          1 MOL1         0.0738
     139    H6      18.492520   19.968490   23.876274 H          1 MOL1         0.0738
     140    C6      20.361109   20.835062   24.568935 C.3        1 MOL1        -0.2879
     141    H7      21.378649   21.019065   24.204506 H          1 MOL1         0.0750
     142    H8      19.943708   21.788484   24.916938 H          1 MOL1         0.0750
     143    H9      20.429179   20.160918   25.432329 H          1 MOL1         0.0750
@<TRIPOS>BOND
    1     1     2    1
    2     1     3    1
    3     1     4    1
    4     4     5    1
    5     4     6    1
    6     6     7    1
    7     4     8    1
    8     8     9    1
    9     8    10    1
   10    10    11    1
   11     8    12    1
   12    12    13    1
   13    12    14    1
   14    14    15    1
   15     1    16    1
   16    14    16    1
   17    14    17    1
   18    17    18    1
   19    17    19    1
   20    17    20    1
   21    20    21    1
   22    22    23    1
   23    22    24    1
   24    22    25    1
   25    25    26    1
   26    25    27    1
   27    27    28    1
   28    25    29    1
   29    29    30    1
   30    29    31    1
   31    31    32    1
   32     3    33    1
   33    29    33    1
   34    33    34    1
   35    33    35    1
   36    35    36    1
   37    22    37    1
   38    35    37    1
   39    35    38    1
   40    38    39    1
   41    38    40    1
   42    38    41    1
   43    41    42    1
   44    43    44    1
   45    43    45    1
   46    43    46    1
   47    46    47    1
   48    46    48    1
   49    48    49    1
   50    46    50    1
   51    50    51    1
   52    50    52    1
   53    52    53    1
   54    24    54    1
   55    50    54    1
   56    54    55    1
   57    54    56    1
   58    56    57    1
   59    43    58    1
   60    56    58    1
   61    56    59    1
   62    59    60    1
   63    59    61    1
   64    59    62    1
   65    62    63    1
   66    64    65    1
   67    64    66    1
   68    64    67    1
   69    67    68    1
   70    67    69    1
   71    69    70    1
   72    67    71    1
   73    71    72    1
   74    71    73    1
   75    73    74    1
   76    45    75    1
   77    71    75    1
   78    75    76    1
   79    75    77    1
   80    77    78    1
   81    64    79    1
   82    77    79    1
   83    77    80    1
   84    80    81    1
   85    80    82    1
   86    80    83    1
   87    83    84    1
   88    85    86    1
   89    85    87    1
   90    85    88    1
   91    88    89    1
   92    88    90    1
   93    90    91    1
   94    88    92    1
   95    92    93    1
   96    92    94    1
   97    94    95    1
   98    66    96    1
   99    92    96    1
  100    96    97    1
  101    96    98    1
  102    98    99    1
  103    85   100    1
  104    98   100    1
  105    98   101    1
  106   101   102    1
  107   101   103    1
  108   101   104    1
  109   104   105    1
  110   106   107    1
  111    12   108    1
  112   106   108    1
  113   106   109    1
  114   109   110    1
  115   109   111    1
  116   111   112    1
  117   109   113    1
  118   113   114    1
  119   113   115    1
  120   115   116    1
  121    87   117    1
  122   113   117    1
  123   117   118    1
  124   117   119    1
  125   119   120    1
  126   106   121    1
  127   119   121    1
  128   119   122    1
  129   122   123    1
  130   122   124    1
  131   122   125    1
  132   125   126    1
  133   127   128    1
  134   127   129    2
  135   127   130    1
  136   130   131    1
  137   130   132    2
  138   132   133    1
  139   132   134    1
  140   134   135    1
  141   134   136    1
  142   134   137    1
  143   137   138    1
  144   137   139    1
  145   137   140    1
  146   140   141    1
  147   140   142    1
  148   140   143    1
@<TRIPOS>SUBSTRUCTURE
       1 MOL1            1 RESIDUE      1      MOL     
       2 MOL1          143 RESIDUE      1      MOL     
@<SCITEGIC>MOL_PROPERTY
feprocess Rank
SciTegic.value.IntegerValue
142

@<SCITEGIC>MOL_PROPERTY
Conf_Id
SciTegic.value.IntegerValue
655

@<SCITEGIC>MOL_PROPERTY
Probability
SciTegic.value.DoubleValue
0.00

@<SCITEGIC>MOL_PROPERTY
G
SciTegic.value.DoubleValue
503.383

@<SCITEGIC>MOL_PROPERTY
E
SciTegic.value.DoubleValue
319.676

@<SCITEGIC>MOL_PROPERTY
-TS
SciTegic.value.DoubleValue
183.708

@<SCITEGIC>MOL_PROPERTY
U+W
SciTegic.value.DoubleValue
193.587

@<SCITEGIC>MOL_PROPERTY
U
SciTegic.value.DoubleValue
269.967

@<SCITEGIC>MOL_PROPERTY
W
SciTegic.value.DoubleValue
-76.380

@<SCITEGIC>MOL_PROPERTY
W(PB)
SciTegic.value.DoubleValue
-82.366

@<SCITEGIC>MOL_PROPERTY
W(SA)
SciTegic.value.DoubleValue
5.987

@<SCITEGIC>MOL_PROPERTY
Valence
SciTegic.value.DoubleValue
152.376

@<SCITEGIC>MOL_PROPERTY
Coulomb
SciTegic.value.DoubleValue
141.741

@<SCITEGIC>MOL_PROPERTY
VdW
SciTegic.value.DoubleValue
-24.150

@<SCITEGIC>MOL_PROPERTY
VdW6
SciTegic.value.DoubleValue
-182.385

@<SCITEGIC>MOL_PROPERTY
VdW12
SciTegic.value.DoubleValue
158.235

@<SCITEGIC>MOL_PROPERTY
Bond
SciTegic.value.DoubleValue
5.056

@<SCITEGIC>MOL_PROPERTY
Angle
SciTegic.value.DoubleValue
14.895

@<SCITEGIC>MOL_PROPERTY
Pdih
SciTegic.value.DoubleValue
132.303

@<SCITEGIC>MOL_PROPERTY
Idih
SciTegic.value.DoubleValue
0.121

@<SCITEGIC>MOL_PROPERTY
Tether
SciTegic.value.DoubleValue
0.000

@<TRIPOS>MOLECULE
CD_guest-s19_fast_vm2_rndm.mol2 : feprocess host+ligand conformer 143
         143         148           2
SMALL
USER_CHARGES
 
@<TRIPOS>ATOM
       1    C1      16.023481   15.132631   21.409953 C.3        1 MOL1         0.2972
       2    H1      14.966029   14.907436   21.222669 H          1 MOL1         0.0751
       3    O1      16.206238   16.547870   21.629935 O.3        1 MOL1        -0.3740
       4    C2      16.494192   14.326564   22.652942 C.3        1 MOL1         0.1003
       5    H2      16.252102   13.276007   22.446524 H          1 MOL1         0.0783
       6    O2      15.791254   14.734900   23.837985 O.3        1 MOL1        -0.5519
       7    H3      15.980518   15.699643   23.990274 H          1 MOL1         0.3769
       8    C3      18.022114   14.404873   22.889852 C.3        1 MOL1         0.1053
       9    H4      18.251659   15.389193   23.301045 H          1 MOL1         0.0783
      10    O3      18.406029   13.408816   23.844115 O.3        1 MOL1        -0.5519
      11    H5      17.770829   13.504419   24.587770 H          1 MOL1         0.3769
      12    C4      18.842913   14.219896   21.590214 C.3        1 MOL1         0.1018
      13    H6      18.855293   13.148820   21.349594 H          1 MOL1         0.0783
      14    C5      18.248081   15.019352   20.394900 C.3        1 MOL1         0.1043
      15    H7      18.383514   16.089037   20.600465 H          1 MOL1         0.0783
      16    O4      16.831039   14.731363   20.282436 O.3        1 MOL1        -0.3740
      17    C6      18.902291   14.728209   19.017820 C.3        1 MOL1         0.0138
      18    H8      19.752989   15.408023   18.885771 H          1 MOL1         0.0794
      19    H9      18.181388   14.967143   18.225877 H          1 MOL1         0.0794
      20    O5      19.338773   13.373491   18.867648 O.3        1 MOL1        -0.5486
      21    H10     20.290100   13.359065   19.115134 H          1 MOL1         0.3769
      22    C7      14.900581   20.297573   20.350715 C.3        1 MOL1         0.2972
      23    H11     14.393434   21.164078   19.907645 H          1 MOL1         0.0751
      24    O6      16.208007   20.651271   20.853993 O.3        1 MOL1        -0.3740
      25    C8      14.043387   19.655925   21.471783 C.3        1 MOL1         0.1003
      26    H12     13.125840   19.276857   21.003947 H          1 MOL1         0.0783
      27    O7      13.684084   20.623570   22.469827 O.3        1 MOL1        -0.5519
      28    H13     14.502015   20.800783   22.997802 H          1 MOL1         0.3769
      29    C9      14.800391   18.447726   22.080850 C.3        1 MOL1         0.1053
      30    H14     15.704347   18.837974   22.563647 H          1 MOL1         0.0783
      31    O8      13.985221   17.781045   23.049983 O.3        1 MOL1        -0.5519
      32    H15     14.616391   17.522169   23.770866 H          1 MOL1         0.3769
      33    C10     15.244149   17.430037   20.993492 C.3        1 MOL1         0.1018
      34    H16     14.348635   16.885138   20.668223 H          1 MOL1         0.0783
      35    C11     15.898121   18.136151   19.762896 C.3        1 MOL1         0.1043
      36    H17     16.888761   18.491715   20.065140 H          1 MOL1         0.0783
      37    O9      15.089710   19.270622   19.356090 O.3        1 MOL1        -0.3740
      38    C12     16.110460   17.258642   18.504609 C.3        1 MOL1         0.0138
      39    H18     17.115068   16.827361   18.553357 H          1 MOL1         0.0794
      40    H19     16.095284   17.908906   17.619673 H          1 MOL1         0.0794
      41    O10     15.137912   16.218558   18.360075 O.3        1 MOL1        -0.5486
      42    H20     15.456342   15.464394   18.907596 H          1 MOL1         0.3769
      43    C13     18.623063   23.729337   22.202831 C.3        1 MOL1         0.2972
      44    H21     19.026887   24.673382   22.591312 H          1 MOL1         0.0751
      45    O11     19.686756   22.850485   21.787593 O.3        1 MOL1        -0.3740
      46    C14     17.793887   23.026626   23.309001 C.3        1 MOL1         0.1003
      47    H22     16.999515   23.719673   23.614385 H          1 MOL1         0.0783
      48    O12     18.633598   22.742633   24.437113 O.3        1 MOL1        -0.5519
      49    H23     19.439590   22.317055   24.073292 H          1 MOL1         0.3769
      50    C15     17.120127   21.730643   22.794329 C.3        1 MOL1         0.1053
      51    H24     17.904715   20.979938   22.634783 H          1 MOL1         0.0783
      52    O13     16.178983   21.257349   23.766952 O.3        1 MOL1        -0.5519
      53    H25     16.690723   20.802530   24.487060 H          1 MOL1         0.3769
      54    C16     16.382685   21.954788   21.447458 C.3        1 MOL1         0.1018
      55    H26     15.424846   22.455149   21.641080 H          1 MOL1         0.0783
      56    C17     17.217363   22.783516   20.435482 C.3        1 MOL1         0.1043
      57    H27     18.036522   22.139766   20.097191 H          1 MOL1         0.0783
      58    O14     17.771249   23.968674   21.062117 O.3        1 MOL1        -0.3740
      59    C18     16.418613   23.214786   19.181459 C.3        1 MOL1         0.0138
      60    H28     16.215293   22.322165   18.574567 H          1 MOL1         0.0794
      61    H29     17.044273   23.883317   18.575443 H          1 MOL1         0.0794
      62    O15     15.186199   23.861204   19.522245 O.3        1 MOL1        -0.5486
      63    H30     14.773646   24.176055   18.688573 H          1 MOL1         0.3769
      64    C19     23.653475   22.785171   20.640067 C.3        1 MOL1         0.2972
      65    H31     24.661044   22.944042   20.236601 H          1 MOL1         0.0751
      66    O16     23.458871   21.427133   21.086343 O.3        1 MOL1        -0.3740
      67    C20     23.355210   23.752437   21.812261 C.3        1 MOL1         0.1003
      68    H32     23.369297   24.770556   21.401679 H          1 MOL1         0.0783
      69    O17     24.348075   23.658928   22.844081 O.3        1 MOL1        -0.5519
      70    H33     24.379997   22.713919   23.139278 H          1 MOL1         0.3769
      71    C21     21.937289   23.491855   22.379200 C.3        1 MOL1         0.1053
      72    H34     21.934079   22.500099   22.852062 H          1 MOL1         0.0783
      73    O18     21.635143   24.495137   23.353393 O.3        1 MOL1        -0.5519
      74    H35     22.430163   24.545429   23.928545 H          1 MOL1         0.3769
      75    C22     20.861803   23.501000   21.257244 C.3        1 MOL1         0.1018
      76    H36     20.661069   24.546070   20.988638 H          1 MOL1         0.0783
      77    C23     21.297980   22.720807   19.978641 C.3        1 MOL1         0.1043
      78    H37     21.248240   21.647911   20.195857 H          1 MOL1         0.0783
      79    O19     22.662812   23.062257   19.627992 O.3        1 MOL1        -0.3740
      80    C24     20.404696   22.958452   18.732480 C.3        1 MOL1         0.0138
      81    H38     19.621948   22.191179   18.712350 H          1 MOL1         0.0794
      82    H39     21.013548   22.801394   17.832094 H          1 MOL1         0.0794
      83    O20     19.809323   24.262031   18.696778 O.3        1 MOL1        -0.5486
      84    H40     19.174564   24.317346   19.448235 H          1 MOL1         0.3769
      85    C25     25.040639   17.731844   21.856504 C.3        1 MOL1         0.2972
      86    H41     25.650446   16.837785   22.040937 H          1 MOL1         0.0751
      87    O21     23.641721   17.404734   21.740252 O.3        1 MOL1        -0.3740
      88    C26     25.219025   18.735575   23.018266 C.3        1 MOL1         0.1003
      89    H42     26.276980   19.027647   23.041759 H          1 MOL1         0.0783
      90    O22     24.866712   18.130014   24.272610 O.3        1 MOL1        -0.5519
      91    H43     24.408636   17.279396   24.061255 H          1 MOL1         0.3769
      92    C27     24.375600   20.007305   22.777674 C.3        1 MOL1         0.1053
      93    H44     23.319201   19.726336   22.850010 H          1 MOL1         0.0783
      94    O23     24.682105   20.964494   23.794313 O.3        1 MOL1        -0.5519
      95    H45     24.668155   20.448505   24.632028 H          1 MOL1         0.3769
      96    C28     24.614784   20.615190   21.369969 C.3        1 MOL1         0.1018
      97    H46     25.542340   21.201219   21.387993 H          1 MOL1         0.0783
      98    C29     24.666413   19.540806   20.243003 C.3        1 MOL1         0.1043
      99    H47     23.636533   19.214792   20.053951 H          1 MOL1         0.0783
     100    O24     25.451873   18.386901   20.639174 O.3        1 MOL1        -0.3740
     101    C30     25.221068   20.074499   18.900171 C.3        1 MOL1         0.0138
     102    H48     24.529790   20.833029   18.508221 H          1 MOL1         0.0794
     103    H49     25.234127   19.247036   18.178226 H          1 MOL1         0.0794
     104    O25     26.537320   20.627711   19.029915 O.3        1 MOL1        -0.5486
     105    H50     26.471405   21.466520   19.530849 H          1 MOL1         0.3769
     106    C31     21.279356   13.939187   21.421183 C.3        1 MOL1         0.2972
     107    H51     20.976178   12.908392   21.198296 H          1 MOL1         0.0751
     108    O26     20.163860   14.720210   21.894415 O.3        1 MOL1        -0.3740
     109    C32     22.353254   13.932158   22.541193 C.3        1 MOL1         0.1003
     110    H52     23.182843   13.300487   22.197852 H          1 MOL1         0.0783
     111    O27     21.804850   13.380638   23.748696 O.3        1 MOL1        -0.5519
     112    H53     20.864689   13.679949   23.791008 H          1 MOL1         0.3769
     113    C33     22.913213   15.352093   22.804894 C.3        1 MOL1         0.1053
     114    H54     22.115405   15.957336   23.253317 H          1 MOL1         0.0783
     115    O28     24.020532   15.268495   23.707979 O.3        1 MOL1        -0.5519
     116    H55     23.722937   14.659930   24.420936 H          1 MOL1         0.3769
     117    C34     23.350444   16.019756   21.478472 C.3        1 MOL1         0.1018
     118    H56     24.227955   15.488801   21.085875 H          1 MOL1         0.0783
     119    C35     22.221194   15.960225   20.417978 C.3        1 MOL1         0.1043
     120    H57     21.364444   16.537879   20.785525 H          1 MOL1         0.0783
     121    O29     21.829228   14.575332   20.244004 O.3        1 MOL1        -0.3740
     122    C36     22.611707   16.557953   19.041099 C.3        1 MOL1         0.0138
     123    H58     22.385424   17.631922   19.056772 H          1 MOL1         0.0794
     124    H59     21.974143   16.110046   18.267770 H          1 MOL1         0.0794
     125    O30     23.993472   16.364549   18.712068 O.3        1 MOL1        -0.5486
     126    H60     24.522196   16.923918   19.327054 H          1 MOL1         0.3769
     127    C1      17.132197   18.285112   24.777489 C.2        1 MOL1         0.6173
     128    O1      16.240784   17.457839   24.691910 O.co2      1 MOL1        -0.6755
     129    O2      17.116145   19.223745   25.552264 O.co2      1 MOL1        -0.6755
     130    C2      18.282575   18.130711   23.851840 C.2        1 MOL1        -0.1504
     131    H1      18.170765   17.376894   23.085900 H          1 MOL1         0.0814
     132    C3      19.433707   18.831346   23.920711 C.2        1 MOL1        -0.1394
     133    H2      19.586103   19.597174   24.680361 H          1 MOL1         0.0817
     134    C4      20.612084   18.532603   23.020039 C.3        1 MOL1        -0.1849
     135    H3      20.574658   17.485550   22.698952 H          1 MOL1         0.0736
     136    H4      21.536058   18.638759   23.601337 H          1 MOL1         0.0736
     137    C5      20.678724   19.443749   21.779592 C.3        1 MOL1        -0.1866
     138    H5      20.654639   20.488822   22.106540 H          1 MOL1         0.0738
     139    H6      21.638734   19.291720   21.273012 H          1 MOL1         0.0738
     140    C6      19.543210   19.173214   20.772918 C.3        1 MOL1        -0.2879
     141    H7      18.567260   19.333611   21.242646 H          1 MOL1         0.0750
     142    H8      19.617505   19.845024   19.909515 H          1 MOL1         0.0750
     143    H9      19.580812   18.140723   20.406961 H          1 MOL1         0.0750
@<TRIPOS>BOND
    1     1     2    1
    2     1     3    1
    3     1     4    1
    4     4     5    1
    5     4     6    1
    6     6     7    1
    7     4     8    1
    8     8     9    1
    9     8    10    1
   10    10    11    1
   11     8    12    1
   12    12    13    1
   13    12    14    1
   14    14    15    1
   15     1    16    1
   16    14    16    1
   17    14    17    1
   18    17    18    1
   19    17    19    1
   20    17    20    1
   21    20    21    1
   22    22    23    1
   23    22    24    1
   24    22    25    1
   25    25    26    1
   26    25    27    1
   27    27    28    1
   28    25    29    1
   29    29    30    1
   30    29    31    1
   31    31    32    1
   32     3    33    1
   33    29    33    1
   34    33    34    1
   35    33    35    1
   36    35    36    1
   37    22    37    1
   38    35    37    1
   39    35    38    1
   40    38    39    1
   41    38    40    1
   42    38    41    1
   43    41    42    1
   44    43    44    1
   45    43    45    1
   46    43    46    1
   47    46    47    1
   48    46    48    1
   49    48    49    1
   50    46    50    1
   51    50    51    1
   52    50    52    1
   53    52    53    1
   54    24    54    1
   55    50    54    1
   56    54    55    1
   57    54    56    1
   58    56    57    1
   59    43    58    1
   60    56    58    1
   61    56    59    1
   62    59    60    1
   63    59    61    1
   64    59    62    1
   65    62    63    1
   66    64    65    1
   67    64    66    1
   68    64    67    1
   69    67    68    1
   70    67    69    1
   71    69    70    1
   72    67    71    1
   73    71    72    1
   74    71    73    1
   75    73    74    1
   76    45    75    1
   77    71    75    1
   78    75    76    1
   79    75    77    1
   80    77    78    1
   81    64    79    1
   82    77    79    1
   83    77    80    1
   84    80    81    1
   85    80    82    1
   86    80    83    1
   87    83    84    1
   88    85    86    1
   89    85    87    1
   90    85    88    1
   91    88    89    1
   92    88    90    1
   93    90    91    1
   94    88    92    1
   95    92    93    1
   96    92    94    1
   97    94    95    1
   98    66    96    1
   99    92    96    1
  100    96    97    1
  101    96    98    1
  102    98    99    1
  103    85   100    1
  104    98   100    1
  105    98   101    1
  106   101   102    1
  107   101   103    1
  108   101   104    1
  109   104   105    1
  110   106   107    1
  111    12   108    1
  112   106   108    1
  113   106   109    1
  114   109   110    1
  115   109   111    1
  116   111   112    1
  117   109   113    1
  118   113   114    1
  119   113   115    1
  120   115   116    1
  121    87   117    1
  122   113   117    1
  123   117   118    1
  124   117   119    1
  125   119   120    1
  126   106   121    1
  127   119   121    1
  128   119   122    1
  129   122   123    1
  130   122   124    1
  131   122   125    1
  132   125   126    1
  133   127   128    1
  134   127   129    2
  135   127   130    1
  136   130   131    1
  137   130   132    2
  138   132   133    1
  139   132   134    1
  140   134   135    1
  141   134   136    1
  142   134   137    1
  143   137   138    1
  144   137   139    1
  145   137   140    1
  146   140   141    1
  147   140   142    1
  148   140   143    1
@<TRIPOS>SUBSTRUCTURE
       1 MOL1            1 RESIDUE      1      MOL     
       2 MOL1          143 RESIDUE      1      MOL     
@<SCITEGIC>MOL_PROPERTY
feprocess Rank
SciTegic.value.IntegerValue
143

@<SCITEGIC>MOL_PROPERTY
Conf_Id
SciTegic.value.IntegerValue
216

@<SCITEGIC>MOL_PROPERTY
Probability
SciTegic.value.DoubleValue
0.00

@<SCITEGIC>MOL_PROPERTY
G
SciTegic.value.DoubleValue
503.402

@<SCITEGIC>MOL_PROPERTY
E
SciTegic.value.DoubleValue
319.020

@<SCITEGIC>MOL_PROPERTY
-TS
SciTegic.value.DoubleValue
184.381

@<SCITEGIC>MOL_PROPERTY
U+W
SciTegic.value.DoubleValue
192.932

@<SCITEGIC>MOL_PROPERTY
U
SciTegic.value.DoubleValue
271.621

@<SCITEGIC>MOL_PROPERTY
W
SciTegic.value.DoubleValue
-78.689

@<SCITEGIC>MOL_PROPERTY
W(PB)
SciTegic.value.DoubleValue
-84.639

@<SCITEGIC>MOL_PROPERTY
W(SA)
SciTegic.value.DoubleValue
5.950

@<SCITEGIC>MOL_PROPERTY
Valence
SciTegic.value.DoubleValue
153.163

@<SCITEGIC>MOL_PROPERTY
Coulomb
SciTegic.value.DoubleValue
144.220

@<SCITEGIC>MOL_PROPERTY
VdW
SciTegic.value.DoubleValue
-25.762

@<SCITEGIC>MOL_PROPERTY
VdW6
SciTegic.value.DoubleValue
-186.872

@<SCITEGIC>MOL_PROPERTY
VdW12
SciTegic.value.DoubleValue
161.110

@<SCITEGIC>MOL_PROPERTY
Bond
SciTegic.value.DoubleValue
5.281

@<SCITEGIC>MOL_PROPERTY
Angle
SciTegic.value.DoubleValue
15.768

@<SCITEGIC>MOL_PROPERTY
Pdih
SciTegic.value.DoubleValue
132.099

@<SCITEGIC>MOL_PROPERTY
Idih
SciTegic.value.DoubleValue
0.016

@<SCITEGIC>MOL_PROPERTY
Tether
SciTegic.value.DoubleValue
0.000

@<TRIPOS>MOLECULE
CD_guest-s19_fast_vm2_rndm.mol2 : feprocess host+ligand conformer 144
         143         148           2
SMALL
USER_CHARGES
 
@<TRIPOS>ATOM
       1    C1      16.541143   15.657662   20.123484 C.3        1 MOL1         0.2972
       2    H1      15.655986   15.531351   19.486646 H          1 MOL1         0.0751
       3    O1      16.451726   16.844036   20.929014 O.3        1 MOL1        -0.3740
       4    C2      16.696676   14.458412   21.094825 C.3        1 MOL1         0.1003
       5    H2      16.748793   13.547389   20.484633 H          1 MOL1         0.0783
       6    O2      15.565859   14.372761   21.978642 O.3        1 MOL1        -0.5519
       7    H3      15.383958   15.287623   22.310947 H          1 MOL1         0.3769
       8    C3      18.009874   14.560574   21.914216 C.3        1 MOL1         0.1053
       9    H4      17.919283   15.410428   22.604275 H          1 MOL1         0.0783
      10    O3      18.189450   13.348553   22.652466 O.3        1 MOL1        -0.5519
      11    H5      17.321031   13.174722   23.078341 H          1 MOL1         0.3769
      12    C4      19.225811   14.815214   20.984949 C.3        1 MOL1         0.1018
      13    H6      19.390038   13.918393   20.372601 H          1 MOL1         0.0783
      14    C5      18.960146   16.013460   20.036451 C.3        1 MOL1         0.1043
      15    H7      18.851525   16.924081   20.639261 H          1 MOL1         0.0783
      16    O4      17.732636   15.759118   19.313411 O.3        1 MOL1        -0.3740
      17    C6      20.084702   16.275780   19.005322 C.3        1 MOL1         0.0138
      18    H8      20.849078   16.897483   19.484824 H          1 MOL1         0.0794
      19    H9      19.671326   16.865256   18.176155 H          1 MOL1         0.0794
      20    O5      20.677947   15.070524   18.505458 O.3        1 MOL1        -0.5486
      21    H10     21.098374   14.609383   19.266873 H          1 MOL1         0.3769
      22    C7      14.504115   20.413085   21.304990 C.3        1 MOL1         0.2972
      23    H11     13.825511   21.274977   21.336160 H          1 MOL1         0.0751
      24    O6      15.849542   20.778678   21.669272 O.3        1 MOL1        -0.3740
      25    C8      14.023200   19.332491   22.300793 C.3        1 MOL1         0.1003
      26    H12     13.023174   19.006520   21.986623 H          1 MOL1         0.0783
      27    O7      13.957190   19.880156   23.627263 O.3        1 MOL1        -0.5519
      28    H13     14.702739   20.524492   23.705168 H          1 MOL1         0.3769
      29    C9      14.963921   18.106513   22.269954 C.3        1 MOL1         0.1053
      30    H14     15.921700   18.415023   22.700662 H          1 MOL1         0.0783
      31    O8      14.410194   17.045582   23.056086 O.3        1 MOL1        -0.5519
      32    H15     14.152501   17.465994   23.906159 H          1 MOL1         0.3769
      33    C10     15.232767   17.602848   20.831167 C.3        1 MOL1         0.1018
      34    H16     14.382744   16.982019   20.518586 H          1 MOL1         0.0783
      35    C11     15.478872   18.746192   19.802885 C.3        1 MOL1         0.1043
      36    H17     16.493051   19.130486   19.972231 H          1 MOL1         0.0783
      37    O9      14.528478   19.826569   19.988871 O.3        1 MOL1        -0.3740
      38    C12     15.404368   18.288110   18.326091 C.3        1 MOL1         0.0138
      39    H18     16.293894   17.685670   18.099479 H          1 MOL1         0.0794
      40    H19     15.442413   19.176435   17.681480 H          1 MOL1         0.0794
      41    O10     14.219919   17.528921   18.054497 O.3        1 MOL1        -0.5486
      42    H20     14.201634   17.339236   17.091088 H          1 MOL1         0.3769
      43    C13     18.438525   24.055839   21.721162 C.3        1 MOL1         0.2972
      44    H21     18.849343   25.072081   21.665852 H          1 MOL1         0.0751
      45    O11     19.473487   23.079397   21.951377 O.3        1 MOL1        -0.3740
      46    C14     17.429835   23.968668   22.893146 C.3        1 MOL1         0.1003
      47    H22     16.643337   24.712566   22.711323 H          1 MOL1         0.0783
      48    O12     18.086918   24.264295   24.135966 O.3        1 MOL1        -0.5519
      49    H23     19.029431   23.984738   24.032289 H          1 MOL1         0.3769
      50    C15     16.765356   22.573463   22.949133 C.3        1 MOL1         0.1053
      51    H24     17.539444   21.844151   23.219685 H          1 MOL1         0.0783
      52    O13     15.727559   22.571583   23.935978 O.3        1 MOL1        -0.5519
      53    H25     16.131980   22.984018   24.730987 H          1 MOL1         0.3769
      54    C16     16.184374   22.175074   21.571057 C.3        1 MOL1         0.1018
      55    H26     15.304175   22.800024   21.370926 H          1 MOL1         0.0783
      56    C17     17.228772   22.361899   20.434942 C.3        1 MOL1         0.1043
      57    H27     18.040970   21.643139   20.604740 H          1 MOL1         0.0783
      58    O14     17.758558   23.711032   20.494794 O.3        1 MOL1        -0.3740
      59    C18     16.698484   22.116855   18.998493 C.3        1 MOL1         0.0138
      60    H28     16.811083   21.052331   18.760533 H          1 MOL1         0.0794
      61    H29     17.334979   22.666767   18.292402 H          1 MOL1         0.0794
      62    O15     15.331356   22.503812   18.825877 O.3        1 MOL1        -0.5486
      63    H30     14.784023   21.741905   19.125633 H          1 MOL1         0.3769
      64    C19     23.593470   22.538720   21.376873 C.3        1 MOL1         0.2972
      65    H31     24.647657   22.717716   21.128437 H          1 MOL1         0.0751
      66    O16     23.379599   21.163175   21.747875 O.3        1 MOL1        -0.3740
      67    C20     23.168927   23.483481   22.534929 C.3        1 MOL1         0.1003
      68    H32     23.324875   24.508733   22.175272 H          1 MOL1         0.0783
      69    O17     23.974636   23.287735   23.706140 O.3        1 MOL1        -0.5519
      70    H33     23.826880   22.354011   24.023235 H          1 MOL1         0.3769
      71    C21     21.667468   23.334425   22.870867 C.3        1 MOL1         0.1053
      72    H34     21.503664   22.332726   23.287920 H          1 MOL1         0.0783
      73    O18     21.286411   24.327275   23.829631 O.3        1 MOL1        -0.5519
      74    H35     21.983077   24.291306   24.522563 H          1 MOL1         0.3769
      75    C22     20.809182   23.484513   21.593334 C.3        1 MOL1         0.1018
      76    H36     20.851620   24.532138   21.267273 H          1 MOL1         0.0783
      77    C23     21.324781   22.568631   20.450004 C.3        1 MOL1         0.1043
      78    H37     21.172983   21.532172   20.772749 H          1 MOL1         0.0783
      79    O19     22.742302   22.808677   20.238961 O.3        1 MOL1        -0.3740
      80    C24     20.596913   22.738369   19.091100 C.3        1 MOL1         0.0138
      81    H38     19.714955   22.087061   19.083356 H          1 MOL1         0.0794
      82    H39     21.257556   22.381933   18.289989 H          1 MOL1         0.0794
      83    O20     20.200316   24.088421   18.828346 O.3        1 MOL1        -0.5486
      84    H40     19.349490   24.231467   19.304054 H          1 MOL1         0.3769
      85    C25     25.146630   17.384861   21.179071 C.3        1 MOL1         0.2972
      86    H41     25.766823   16.570017   20.784895 H          1 MOL1         0.0751
      87    O21     24.244036   16.901967   22.190910 O.3        1 MOL1        -0.3740
      88    C26     26.055486   18.473108   21.806431 C.3        1 MOL1         0.1003
      89    H42     26.772781   18.778522   21.033541 H          1 MOL1         0.0783
      90    O22     26.769971   17.932521   22.927664 O.3        1 MOL1        -0.5519
      91    H43     26.095301   17.476892   23.481126 H          1 MOL1         0.3769
      92    C27     25.263407   19.733215   22.240025 C.3        1 MOL1         0.1053
      93    H44     24.676783   19.480829   23.133553 H          1 MOL1         0.0783
      94    O23     26.198218   20.775142   22.539599 O.3        1 MOL1        -0.5519
      95    H45     26.788266   20.408339   23.232519 H          1 MOL1         0.3769
      96    C28     24.281641   20.212382   21.140914 C.3        1 MOL1         0.1018
      97    H46     24.864253   20.666341   20.328447 H          1 MOL1         0.0783
      98    C29     23.449593   19.035968   20.561907 C.3        1 MOL1         0.1043
      99    H47     22.791073   18.649457   21.351350 H          1 MOL1         0.0783
     100    O24     24.363532   17.999804   20.133547 O.3        1 MOL1        -0.3740
     101    C30     22.556163   19.399657   19.348667 C.3        1 MOL1         0.0138
     102    H48     21.580913   19.736704   19.718308 H          1 MOL1         0.0794
     103    H49     22.372825   18.487469   18.766088 H          1 MOL1         0.0794
     104    O25     23.133800   20.401371   18.503478 O.3        1 MOL1        -0.5486
     105    H50     23.143377   21.246034   19.011472 H          1 MOL1         0.3769
     106    C31     21.258390   13.989972   22.017818 C.3        1 MOL1         0.2972
     107    H51     20.691368   13.049965   22.019236 H          1 MOL1         0.0751
     108    O26     20.384483   15.115572   21.795925 O.3        1 MOL1        -0.3740
     109    C32     21.987695   14.144877   23.370824 C.3        1 MOL1         0.1003
     110    H52     22.635233   13.267461   23.497055 H          1 MOL1         0.0783
     111    O27     21.036137   14.190480   24.444084 O.3        1 MOL1        -0.5519
     112    H53     20.244446   14.649715   24.084656 H          1 MOL1         0.3769
     113    C33     22.883230   15.401407   23.396088 C.3        1 MOL1         0.1053
     114    H54     22.224236   16.278255   23.399057 H          1 MOL1         0.0783
     115    O28     23.666428   15.379100   24.594408 O.3        1 MOL1        -0.5519
     116    H55     23.018942   15.259999   25.323112 H          1 MOL1         0.3769
     117    C34     23.811608   15.515778   22.158160 C.3        1 MOL1         0.1018
     118    H56     24.666191   14.842366   22.300676 H          1 MOL1         0.0783
     119    C35     23.075560   15.158660   20.820549 C.3        1 MOL1         0.1043
     120    H57     22.440956   16.010712   20.557148 H          1 MOL1         0.0783
     121    O29     22.248120   13.975363   20.974065 O.3        1 MOL1        -0.3740
     122    C36     23.999101   14.846443   19.610769 C.3        1 MOL1         0.0138
     123    H58     24.352346   15.778584   19.157288 H          1 MOL1         0.0794
     124    H59     23.401937   14.341017   18.839791 H          1 MOL1         0.0794
     125    O30     25.115012   14.025776   19.976005 O.3        1 MOL1        -0.5486
     126    H60     25.592386   13.786785   19.151570 H          1 MOL1         0.3769
     127    C1      22.700487   19.870912   25.179170 C.2        1 MOL1         0.6173
     128    O1      23.360860   20.869036   24.963914 O.co2      1 MOL1        -0.6755
     129    O2      22.810216   19.201107   26.188980 O.co2      1 MOL1        -0.6755
     130    C2      21.712773   19.477952   24.139860 C.2        1 MOL1        -0.1504
     131    H1      21.669310   20.112001   23.262033 H          1 MOL1         0.0814
     132    C3      20.884379   18.416693   24.236759 C.2        1 MOL1        -0.1394
     133    H2      20.901587   17.768101   25.112024 H          1 MOL1         0.0817
     134    C4      19.880478   18.057452   23.164193 C.3        1 MOL1        -0.1849
     135    H3      19.454232   17.069589   23.376358 H          1 MOL1         0.0736
     136    H4      20.392516   17.977480   22.196965 H          1 MOL1         0.0736
     137    C5      18.740473   19.092663   23.058768 C.3        1 MOL1        -0.1866
     138    H5      19.155982   20.086081   22.842310 H          1 MOL1         0.0738
     139    H6      18.095868   18.832285   22.209782 H          1 MOL1         0.0738
     140    C6      17.896730   19.150125   24.351244 C.3        1 MOL1        -0.2879
     141    H7      17.491001   18.160581   24.598015 H          1 MOL1         0.0750
     142    H8      17.053076   19.841348   24.239850 H          1 MOL1         0.0750
     143    H9      18.500802   19.492933   25.201056 H          1 MOL1         0.0750
@<TRIPOS>BOND
    1     1     2    1
    2     1     3    1
    3     1     4    1
    4     4     5    1
    5     4     6    1
    6     6     7    1
    7     4     8    1
    8     8     9    1
    9     8    10    1
   10    10    11    1
   11     8    12    1
   12    12    13    1
   13    12    14    1
   14    14    15    1
   15     1    16    1
   16    14    16    1
   17    14    17    1
   18    17    18    1
   19    17    19    1
   20    17    20    1
   21    20    21    1
   22    22    23    1
   23    22    24    1
   24    22    25    1
   25    25    26    1
   26    25    27    1
   27    27    28    1
   28    25    29    1
   29    29    30    1
   30    29    31    1
   31    31    32    1
   32     3    33    1
   33    29    33    1
   34    33    34    1
   35    33    35    1
   36    35    36    1
   37    22    37    1
   38    35    37    1
   39    35    38    1
   40    38    39    1
   41    38    40    1
   42    38    41    1
   43    41    42    1
   44    43    44    1
   45    43    45    1
   46    43    46    1
   47    46    47    1
   48    46    48    1
   49    48    49    1
   50    46    50    1
   51    50    51    1
   52    50    52    1
   53    52    53    1
   54    24    54    1
   55    50    54    1
   56    54    55    1
   57    54    56    1
   58    56    57    1
   59    43    58    1
   60    56    58    1
   61    56    59    1
   62    59    60    1
   63    59    61    1
   64    59    62    1
   65    62    63    1
   66    64    65    1
   67    64    66    1
   68    64    67    1
   69    67    68    1
   70    67    69    1
   71    69    70    1
   72    67    71    1
   73    71    72    1
   74    71    73    1
   75    73    74    1
   76    45    75    1
   77    71    75    1
   78    75    76    1
   79    75    77    1
   80    77    78    1
   81    64    79    1
   82    77    79    1
   83    77    80    1
   84    80    81    1
   85    80    82    1
   86    80    83    1
   87    83    84    1
   88    85    86    1
   89    85    87    1
   90    85    88    1
   91    88    89    1
   92    88    90    1
   93    90    91    1
   94    88    92    1
   95    92    93    1
   96    92    94    1
   97    94    95    1
   98    66    96    1
   99    92    96    1
  100    96    97    1
  101    96    98    1
  102    98    99    1
  103    85   100    1
  104    98   100    1
  105    98   101    1
  106   101   102    1
  107   101   103    1
  108   101   104    1
  109   104   105    1
  110   106   107    1
  111    12   108    1
  112   106   108    1
  113   106   109    1
  114   109   110    1
  115   109   111    1
  116   111   112    1
  117   109   113    1
  118   113   114    1
  119   113   115    1
  120   115   116    1
  121    87   117    1
  122   113   117    1
  123   117   118    1
  124   117   119    1
  125   119   120    1
  126   106   121    1
  127   119   121    1
  128   119   122    1
  129   122   123    1
  130   122   124    1
  131   122   125    1
  132   125   126    1
  133   127   128    1
  134   127   129    2
  135   127   130    1
  136   130   131    1
  137   130   132    2
  138   132   133    1
  139   132   134    1
  140   134   135    1
  141   134   136    1
  142   134   137    1
  143   137   138    1
  144   137   139    1
  145   137   140    1
  146   140   141    1
  147   140   142    1
  148   140   143    1
@<TRIPOS>SUBSTRUCTURE
       1 MOL1            1 RESIDUE      1      MOL     
       2 MOL1          143 RESIDUE      1      MOL     
@<SCITEGIC>MOL_PROPERTY
feprocess Rank
SciTegic.value.IntegerValue
144

@<SCITEGIC>MOL_PROPERTY
Conf_Id
SciTegic.value.IntegerValue
585

@<SCITEGIC>MOL_PROPERTY
Probability
SciTegic.value.DoubleValue
0.00

@<SCITEGIC>MOL_PROPERTY
G
SciTegic.value.DoubleValue
503.427

@<SCITEGIC>MOL_PROPERTY
E
SciTegic.value.DoubleValue
322.368

@<SCITEGIC>MOL_PROPERTY
-TS
SciTegic.value.DoubleValue
181.059

@<SCITEGIC>MOL_PROPERTY
U+W
SciTegic.value.DoubleValue
196.279

@<SCITEGIC>MOL_PROPERTY
U
SciTegic.value.DoubleValue
279.295

@<SCITEGIC>MOL_PROPERTY
W
SciTegic.value.DoubleValue
-83.015

@<SCITEGIC>MOL_PROPERTY
W(PB)
SciTegic.value.DoubleValue
-88.998

@<SCITEGIC>MOL_PROPERTY
W(SA)
SciTegic.value.DoubleValue
5.983

@<SCITEGIC>MOL_PROPERTY
Valence
SciTegic.value.DoubleValue
148.246

@<SCITEGIC>MOL_PROPERTY
Coulomb
SciTegic.value.DoubleValue
157.116

@<SCITEGIC>MOL_PROPERTY
VdW
SciTegic.value.DoubleValue
-26.067

@<SCITEGIC>MOL_PROPERTY
VdW6
SciTegic.value.DoubleValue
-178.085

@<SCITEGIC>MOL_PROPERTY
VdW12
SciTegic.value.DoubleValue
152.018

@<SCITEGIC>MOL_PROPERTY
Bond
SciTegic.value.DoubleValue
4.766

@<SCITEGIC>MOL_PROPERTY
Angle
SciTegic.value.DoubleValue
14.865

@<SCITEGIC>MOL_PROPERTY
Pdih
SciTegic.value.DoubleValue
128.614

@<SCITEGIC>MOL_PROPERTY
Idih
SciTegic.value.DoubleValue
0.001

@<SCITEGIC>MOL_PROPERTY
Tether
SciTegic.value.DoubleValue
0.000

@<TRIPOS>MOLECULE
CD_guest-s19_fast_vm2_rndm.mol2 : feprocess host+ligand conformer 145
         143         148           2
SMALL
USER_CHARGES
 
@<TRIPOS>ATOM
       1    C1      16.212133   14.987173   21.883222 C.3        1 MOL1         0.2972
       2    H1      15.163358   14.805751   22.150908 H          1 MOL1         0.0751
       3    O1      16.524487   16.392895   21.847306 O.3        1 MOL1        -0.3740
       4    C2      17.146451   14.329324   22.923773 C.3        1 MOL1         0.1003
       5    H2      16.991860   13.243704   22.877737 H          1 MOL1         0.0783
       6    O2      16.812125   14.800955   24.238645 O.3        1 MOL1        -0.5519
       7    H3      16.582676   15.757563   24.155247 H          1 MOL1         0.3769
       8    C3      18.626925   14.618374   22.569743 C.3        1 MOL1         0.1053
       9    H4      18.804393   15.694739   22.700441 H          1 MOL1         0.0783
      10    O3      19.500453   13.885145   23.435462 O.3        1 MOL1        -0.5519
      11    H5      19.595171   14.456049   24.246021 H          1 MOL1         0.3769
      12    C4      18.948975   14.260960   21.095450 C.3        1 MOL1         0.1018
      13    H6      19.111343   13.177402   21.022753 H          1 MOL1         0.0783
      14    C5      17.850008   14.712803   20.088084 C.3        1 MOL1         0.1043
      15    H7      17.951584   15.797717   19.957563 H          1 MOL1         0.0783
      16    O4      16.519671   14.425075   20.591970 O.3        1 MOL1        -0.3740
      17    C6      17.990817   14.075084   18.685310 C.3        1 MOL1         0.0138
      18    H8      18.870842   14.508663   18.191403 H          1 MOL1         0.0794
      19    H9      17.112601   14.350054   18.085755 H          1 MOL1         0.0794
      20    O5      18.122569   12.649933   18.750321 O.3        1 MOL1        -0.5486
      21    H10     18.121462   12.307630   17.829705 H          1 MOL1         0.3769
      22    C7      14.820309   20.184795   21.635176 C.3        1 MOL1         0.2972
      23    H11     14.111131   21.019997   21.565608 H          1 MOL1         0.0751
      24    O6      16.181438   20.658387   21.619526 O.3        1 MOL1        -0.3740
      25    C8      14.591264   19.414745   22.961365 C.3        1 MOL1         0.1003
      26    H12     13.552317   19.060307   22.963216 H          1 MOL1         0.0783
      27    O7      14.797944   20.282713   24.085644 O.3        1 MOL1        -0.5519
      28    H13     15.512403   20.907387   23.824710 H          1 MOL1         0.3769
      29    C9      15.517133   18.179871   23.060118 C.3        1 MOL1         0.1053
      30    H14     16.553373   18.530501   23.143388 H          1 MOL1         0.0783
      31    O8      15.174102   17.413028   24.218226 O.3        1 MOL1        -0.5519
      32    H15     15.075726   18.073060   24.940120 H          1 MOL1         0.3769
      33    C10     15.415543   17.304163   21.790555 C.3        1 MOL1         0.1018
      34    H16     14.445668   16.789621   21.784322 H          1 MOL1         0.0783
      35    C11     15.575728   18.150499   20.499834 C.3        1 MOL1         0.1043
      36    H17     16.603043   18.533247   20.492536 H          1 MOL1         0.0783
      37    O9      14.649689   19.267699   20.529682 O.3        1 MOL1        -0.3740
      38    C12     15.372979   17.367143   19.175777 C.3        1 MOL1         0.0138
      39    H18     16.340660   16.956732   18.861689 H          1 MOL1         0.0794
      40    H19     15.060585   18.071867   18.393696 H          1 MOL1         0.0794
      41    O10     14.419379   16.304784   19.286476 O.3        1 MOL1        -0.5486
      42    H20     14.887239   15.543945   19.701582 H          1 MOL1         0.3769
      43    C13     18.582779   23.797341   20.341730 C.3        1 MOL1         0.2972
      44    H21     19.013969   24.676814   19.846338 H          1 MOL1         0.0751
      45    O11     19.562483   23.088760   21.123916 O.3        1 MOL1        -0.3740
      46    C14     17.431297   24.209974   21.292113 C.3        1 MOL1         0.1003
      47    H22     16.675669   24.729398   20.688656 H          1 MOL1         0.0783
      48    O12     17.913875   25.093741   22.318060 O.3        1 MOL1        -0.5519
      49    H23     18.738663   24.689787   22.689704 H          1 MOL1         0.3769
      50    C15     16.764713   22.966263   21.931339 C.3        1 MOL1         0.1053
      51    H24     17.480836   22.536384   22.639194 H          1 MOL1         0.0783
      52    O13     15.584085   23.367127   22.632752 O.3        1 MOL1        -0.5519
      53    H25     15.854668   24.140788   23.174499 H          1 MOL1         0.3769
      54    C16     16.414212   21.876918   20.883210 C.3        1 MOL1         0.1018
      55    H26     15.522681   22.202351   20.331364 H          1 MOL1         0.0783
      56    C17     17.573749   21.618281   19.877860 C.3        1 MOL1         0.1043
      57    H27     18.390216   21.115603   20.413116 H          1 MOL1         0.0783
      58    O14     18.044205   22.885854   19.362539 O.3        1 MOL1        -0.3740
      59    C18     17.209920   20.723173   18.663872 C.3        1 MOL1         0.0138
      60    H28     17.438998   19.681061   18.913478 H          1 MOL1         0.0794
      61    H29     17.867114   20.990951   17.825704 H          1 MOL1         0.0794
      62    O15     15.839485   20.837283   18.261643 O.3        1 MOL1        -0.5486
      63    H30     15.293504   20.402156   18.957455 H          1 MOL1         0.3769
      64    C19     23.637614   22.870202   21.780909 C.3        1 MOL1         0.2972
      65    H31     24.716567   23.045530   21.879549 H          1 MOL1         0.0751
      66    O16     23.301339   21.478902   21.941172 O.3        1 MOL1        -0.3740
      67    C20     22.850489   23.669984   22.849724 C.3        1 MOL1         0.1003
      68    H32     23.055875   24.735297   22.682592 H          1 MOL1         0.0783
      69    O17     23.273078   23.308954   24.174782 O.3        1 MOL1        -0.5519
      70    H33     23.348189   22.321369   24.203966 H          1 MOL1         0.3769
      71    C21     21.326852   23.445746   22.687446 C.3        1 MOL1         0.1053
      72    H34     21.108481   22.400107   22.943492 H          1 MOL1         0.0783
      73    O18     20.613711   24.322028   23.567999 O.3        1 MOL1        -0.5519
      74    H35     21.046341   24.212431   24.443053 H          1 MOL1         0.3769
      75    C22     20.863493   23.694734   21.231288 C.3        1 MOL1         0.1018
      76    H36     20.825163   24.779453   21.064540 H          1 MOL1         0.0783
      77    C23     21.789416   23.022599   20.177074 C.3        1 MOL1         0.1043
      78    H37     21.622047   21.938079   20.216853 H          1 MOL1         0.0783
      79    O19     23.177907   23.300846   20.483286 O.3        1 MOL1        -0.3740
      80    C24     21.517242   23.477359   18.722597 C.3        1 MOL1         0.0138
      81    H38     20.569225   23.035183   18.388751 H          1 MOL1         0.0794
      82    H39     22.308107   23.073210   18.076642 H          1 MOL1         0.0794
      83    O20     21.457828   24.904448   18.602509 O.3        1 MOL1        -0.5486
      84    H40     21.357558   25.118907   17.649411 H          1 MOL1         0.3769
      85    C25     24.806452   17.655012   22.157436 C.3        1 MOL1         0.2972
      86    H41     25.400905   16.737918   22.258831 H          1 MOL1         0.0751
      87    O21     23.459645   17.363154   21.735774 O.3        1 MOL1        -0.3740
      88    C26     24.774034   18.413807   23.508218 C.3        1 MOL1         0.1003
      89    H42     25.802762   18.726210   23.729400 H          1 MOL1         0.0783
      90    O22     24.306831   17.576795   24.575991 O.3        1 MOL1        -0.5519
      91    H43     23.356424   17.344441   24.379307 H          1 MOL1         0.3769
      92    C27     23.906487   19.684241   23.385538 C.3        1 MOL1         0.1053
      93    H44     22.878224   19.367321   23.174168 H          1 MOL1         0.0783
      94    O23     23.947929   20.424745   24.610143 O.3        1 MOL1        -0.5519
      95    H45     23.779604   19.757662   25.312693 H          1 MOL1         0.3769
      96    C28     24.388247   20.574362   22.216223 C.3        1 MOL1         0.1018
      97    H46     25.299277   21.099953   22.531298 H          1 MOL1         0.0783
      98    C29     24.653766   19.769639   20.911750 C.3        1 MOL1         0.1043
      99    H47     23.675465   19.512929   20.493228 H          1 MOL1         0.0783
     100    O24     25.388477   18.542660   21.176082 O.3        1 MOL1        -0.3740
     101    C30     25.418184   20.576991   19.835533 C.3        1 MOL1         0.0138
     102    H48     24.755281   21.364211   19.452357 H          1 MOL1         0.0794
     103    H49     25.651646   19.910903   18.994110 H          1 MOL1         0.0794
     104    O25     26.618283   21.162580   20.355312 O.3        1 MOL1        -0.5486
     105    H50     27.075791   21.613115   19.612203 H          1 MOL1         0.3769
     106    C31     21.175556   14.335760   20.041421 C.3        1 MOL1         0.2972
     107    H51     20.775739   13.507162   19.442881 H          1 MOL1         0.0751
     108    O26     20.133563   15.012479   20.769727 O.3        1 MOL1        -0.3740
     109    C32     22.259533   13.839367   21.034150 C.3        1 MOL1         0.1003
     110    H52     23.065342   13.402541   20.430050 H          1 MOL1         0.0783
     111    O27     21.747911   12.829023   21.917180 O.3        1 MOL1        -0.5519
     112    H53     21.003770   13.237447   22.428583 H          1 MOL1         0.3769
     113    C33     22.865521   15.015786   21.842396 C.3        1 MOL1         0.1053
     114    H54     22.100023   15.390461   22.536805 H          1 MOL1         0.0783
     115    O28     23.997661   14.528369   22.570874 O.3        1 MOL1        -0.5519
     116    H55     23.666475   13.756335   23.078938 H          1 MOL1         0.3769
     117    C34     23.298275   16.187266   20.917828 C.3        1 MOL1         0.1018
     118    H56     24.236061   15.907941   20.420470 H          1 MOL1         0.0783
     119    C35     22.232674   16.529150   19.837974 C.3        1 MOL1         0.1043
     120    H57     21.375201   16.996849   20.340135 H          1 MOL1         0.0783
     121    O29     21.803355   15.310629   19.182043 O.3        1 MOL1        -0.3740
     122    C36     22.708626   17.525902   18.748416 C.3        1 MOL1         0.0138
     123    H58     22.454204   18.541842   19.073497 H          1 MOL1         0.0794
     124    H59     22.134211   17.341444   17.830760 H          1 MOL1         0.0794
     125    O30     24.113094   17.440218   18.471508 O.3        1 MOL1        -0.5486
     126    H60     24.592893   17.693234   19.293438 H          1 MOL1         0.3769
     127    C1      20.407749   17.031245   24.723065 C.2        1 MOL1         0.6173
     128    O1      19.973680   15.998168   25.196576 O.co2      1 MOL1        -0.6755
     129    O2      21.565607   17.168357   24.373577 O.co2      1 MOL1        -0.6755
     130    C2      19.454610   18.161726   24.551443 C.2        1 MOL1        -0.1504
     131    H1      18.428166   17.971825   24.855516 H          1 MOL1         0.0814
     132    C3      19.814836   19.370362   24.063931 C.2        1 MOL1        -0.1394
     133    H2      20.842563   19.564058   23.770657 H          1 MOL1         0.0817
     134    C4      18.874785   20.540690   23.888971 C.3        1 MOL1        -0.1849
     135    H3      17.837442   20.199276   23.805918 H          1 MOL1         0.0736
     136    H4      19.114930   21.035887   22.940554 H          1 MOL1         0.0736
     137    C5      18.992066   21.563355   25.039505 C.3        1 MOL1        -0.1866
     138    H5      20.044640   21.845305   25.178365 H          1 MOL1         0.0738
     139    H6      18.455073   22.481436   24.766429 H          1 MOL1         0.0738
     140    C6      18.418147   21.023601   26.366043 C.3        1 MOL1        -0.2879
     141    H7      18.972306   20.138521   26.703935 H          1 MOL1         0.0750
     142    H8      18.485238   21.784916   27.153546 H          1 MOL1         0.0750
     143    H9      17.362632   20.744378   26.251575 H          1 MOL1         0.0750
@<TRIPOS>BOND
    1     1     2    1
    2     1     3    1
    3     1     4    1
    4     4     5    1
    5     4     6    1
    6     6     7    1
    7     4     8    1
    8     8     9    1
    9     8    10    1
   10    10    11    1
   11     8    12    1
   12    12    13    1
   13    12    14    1
   14    14    15    1
   15     1    16    1
   16    14    16    1
   17    14    17    1
   18    17    18    1
   19    17    19    1
   20    17    20    1
   21    20    21    1
   22    22    23    1
   23    22    24    1
   24    22    25    1
   25    25    26    1
   26    25    27    1
   27    27    28    1
   28    25    29    1
   29    29    30    1
   30    29    31    1
   31    31    32    1
   32     3    33    1
   33    29    33    1
   34    33    34    1
   35    33    35    1
   36    35    36    1
   37    22    37    1
   38    35    37    1
   39    35    38    1
   40    38    39    1
   41    38    40    1
   42    38    41    1
   43    41    42    1
   44    43    44    1
   45    43    45    1
   46    43    46    1
   47    46    47    1
   48    46    48    1
   49    48    49    1
   50    46    50    1
   51    50    51    1
   52    50    52    1
   53    52    53    1
   54    24    54    1
   55    50    54    1
   56    54    55    1
   57    54    56    1
   58    56    57    1
   59    43    58    1
   60    56    58    1
   61    56    59    1
   62    59    60    1
   63    59    61    1
   64    59    62    1
   65    62    63    1
   66    64    65    1
   67    64    66    1
   68    64    67    1
   69    67    68    1
   70    67    69    1
   71    69    70    1
   72    67    71    1
   73    71    72    1
   74    71    73    1
   75    73    74    1
   76    45    75    1
   77    71    75    1
   78    75    76    1
   79    75    77    1
   80    77    78    1
   81    64    79    1
   82    77    79    1
   83    77    80    1
   84    80    81    1
   85    80    82    1
   86    80    83    1
   87    83    84    1
   88    85    86    1
   89    85    87    1
   90    85    88    1
   91    88    89    1
   92    88    90    1
   93    90    91    1
   94    88    92    1
   95    92    93    1
   96    92    94    1
   97    94    95    1
   98    66    96    1
   99    92    96    1
  100    96    97    1
  101    96    98    1
  102    98    99    1
  103    85   100    1
  104    98   100    1
  105    98   101    1
  106   101   102    1
  107   101   103    1
  108   101   104    1
  109   104   105    1
  110   106   107    1
  111    12   108    1
  112   106   108    1
  113   106   109    1
  114   109   110    1
  115   109   111    1
  116   111   112    1
  117   109   113    1
  118   113   114    1
  119   113   115    1
  120   115   116    1
  121    87   117    1
  122   113   117    1
  123   117   118    1
  124   117   119    1
  125   119   120    1
  126   106   121    1
  127   119   121    1
  128   119   122    1
  129   122   123    1
  130   122   124    1
  131   122   125    1
  132   125   126    1
  133   127   128    1
  134   127   129    2
  135   127   130    1
  136   130   131    1
  137   130   132    2
  138   132   133    1
  139   132   134    1
  140   134   135    1
  141   134   136    1
  142   134   137    1
  143   137   138    1
  144   137   139    1
  145   137   140    1
  146   140   141    1
  147   140   142    1
  148   140   143    1
@<TRIPOS>SUBSTRUCTURE
       1 MOL1            1 RESIDUE      1      MOL     
       2 MOL1          143 RESIDUE      1      MOL     
@<SCITEGIC>MOL_PROPERTY
feprocess Rank
SciTegic.value.IntegerValue
145

@<SCITEGIC>MOL_PROPERTY
Conf_Id
SciTegic.value.IntegerValue
116

@<SCITEGIC>MOL_PROPERTY
Probability
SciTegic.value.DoubleValue
0.00

@<SCITEGIC>MOL_PROPERTY
G
SciTegic.value.DoubleValue
503.484

@<SCITEGIC>MOL_PROPERTY
E
SciTegic.value.DoubleValue
322.756

@<SCITEGIC>MOL_PROPERTY
-TS
SciTegic.value.DoubleValue
180.728

@<SCITEGIC>MOL_PROPERTY
U+W
SciTegic.value.DoubleValue
196.667

@<SCITEGIC>MOL_PROPERTY
U
SciTegic.value.DoubleValue
271.665

@<SCITEGIC>MOL_PROPERTY
W
SciTegic.value.DoubleValue
-74.998

@<SCITEGIC>MOL_PROPERTY
W(PB)
SciTegic.value.DoubleValue
-81.054

@<SCITEGIC>MOL_PROPERTY
W(SA)
SciTegic.value.DoubleValue
6.056

@<SCITEGIC>MOL_PROPERTY
Valence
SciTegic.value.DoubleValue
148.429

@<SCITEGIC>MOL_PROPERTY
Coulomb
SciTegic.value.DoubleValue
143.963

@<SCITEGIC>MOL_PROPERTY
VdW
SciTegic.value.DoubleValue
-20.727

@<SCITEGIC>MOL_PROPERTY
VdW6
SciTegic.value.DoubleValue
-172.102

@<SCITEGIC>MOL_PROPERTY
VdW12
SciTegic.value.DoubleValue
151.375

@<SCITEGIC>MOL_PROPERTY
Bond
SciTegic.value.DoubleValue
4.854

@<SCITEGIC>MOL_PROPERTY
Angle
SciTegic.value.DoubleValue
13.946

@<SCITEGIC>MOL_PROPERTY
Pdih
SciTegic.value.DoubleValue
129.628

@<SCITEGIC>MOL_PROPERTY
Idih
SciTegic.value.DoubleValue
0.001

@<SCITEGIC>MOL_PROPERTY
Tether
SciTegic.value.DoubleValue
0.000

@<TRIPOS>MOLECULE
CD_guest-s19_fast_vm2_rndm.mol2 : feprocess host+ligand conformer 146
         143         148           2
SMALL
USER_CHARGES
 
@<TRIPOS>ATOM
       1    C1      15.987335   15.155746   20.664345 C.3        1 MOL1         0.2972
       2    H1      14.998034   15.034336   20.205540 H          1 MOL1         0.0751
       3    O1      15.937877   16.094464   21.754893 O.3        1 MOL1        -0.3740
       4    C2      16.478478   13.790988   21.212752 C.3        1 MOL1         0.1003
       5    H2      16.450385   13.079521   20.377203 H          1 MOL1         0.0783
       6    O2      15.602559   13.332968   22.253337 O.3        1 MOL1        -0.5519
       7    H3      15.498166   14.093696   22.869369 H          1 MOL1         0.3769
       8    C3      17.937296   13.848650   21.735102 C.3        1 MOL1         0.1053
       9    H4      17.943999   14.410450   22.678874 H          1 MOL1         0.0783
      10    O3      18.392782   12.508833   21.952431 O.3        1 MOL1        -0.5519
      11    H5      17.748818   12.110322   22.576424 H          1 MOL1         0.3769
      12    C4      18.883737   14.570548   20.742617 C.3        1 MOL1         0.1018
      13    H6      19.058069   13.911757   19.881723 H          1 MOL1         0.0783
      14    C5      18.272696   15.903542   20.235635 C.3        1 MOL1         0.1043
      15    H7      18.191244   16.594549   21.083415 H          1 MOL1         0.0783
      16    O4      16.956748   15.628207   19.703575 O.3        1 MOL1        -0.3740
      17    C6      19.092116   16.621938   19.134414 C.3        1 MOL1         0.0138
      18    H8      19.829244   17.274205   19.617324 H          1 MOL1         0.0794
      19    H9      18.416717   17.276357   18.568034 H          1 MOL1         0.0794
      20    O5      19.750137   15.714459   18.242559 O.3        1 MOL1        -0.5486
      21    H10     20.432982   15.232179   18.764373 H          1 MOL1         0.3769
      22    C7      14.858133   20.124964   21.807277 C.3        1 MOL1         0.2972
      23    H11     14.315364   21.078561   21.846235 H          1 MOL1         0.0751
      24    O6      16.275618   20.338946   21.669246 O.3        1 MOL1        -0.3740
      25    C8      14.571927   19.327159   23.096249 C.3        1 MOL1         0.1003
      26    H12     13.485483   19.180650   23.153831 H          1 MOL1         0.0783
      27    O7      15.012806   20.064655   24.248347 O.3        1 MOL1        -0.5519
      28    H13     15.488057   20.861777   23.909553 H          1 MOL1         0.3769
      29    C9      15.238137   17.935739   23.055728 C.3        1 MOL1         0.1053
      30    H14     16.323107   18.087497   23.122011 H          1 MOL1         0.0783
      31    O8      14.781899   17.182742   24.184489 O.3        1 MOL1        -0.5519
      32    H15     14.927583   17.770125   24.958011 H          1 MOL1         0.3769
      33    C10     14.949793   17.158526   21.741845 C.3        1 MOL1         0.1018
      34    H16     13.936899   16.740755   21.801202 H          1 MOL1         0.0783
      35    C11     15.068146   18.067637   20.468083 C.3        1 MOL1         0.1043
      36    H17     16.133459   18.234105   20.270066 H          1 MOL1         0.0783
      37    O9      14.415648   19.345590   20.684249 O.3        1 MOL1        -0.3740
      38    C12     14.414467   17.504263   19.176140 C.3        1 MOL1         0.0138
      39    H18     15.082951   16.778646   18.701174 H          1 MOL1         0.0794
      40    H19     14.301999   18.328125   18.458277 H          1 MOL1         0.0794
      41    O10     13.139347   16.902270   19.429340 O.3        1 MOL1        -0.5486
      42    H20     12.744112   16.664381   18.562259 H          1 MOL1         0.3769
      43    C13     18.645881   23.667886   20.591470 C.3        1 MOL1         0.2972
      44    H21     18.956315   24.604721   20.110923 H          1 MOL1         0.0751
      45    O11     19.732208   23.046120   21.296088 O.3        1 MOL1        -0.3740
      46    C14     17.522512   23.925280   21.632985 C.3        1 MOL1         0.1003
      47    H22     16.689228   24.406000   21.104289 H          1 MOL1         0.0783
      48    O12     17.982718   24.797966   22.678219 O.3        1 MOL1        -0.5519
      49    H23     18.886330   24.490456   22.943037 H          1 MOL1         0.3769
      50    C15     17.001790   22.593126   22.233464 C.3        1 MOL1         0.1053
      51    H24     17.808730   22.135323   22.822872 H          1 MOL1         0.0783
      52    O13     15.872796   22.856548   23.073892 O.3        1 MOL1        -0.5519
      53    H25     16.135095   23.634028   23.615952 H          1 MOL1         0.3769
      54    C16     16.614820   21.616948   21.096006 C.3        1 MOL1         0.1018
      55    H26     15.767678   22.043692   20.542026 H          1 MOL1         0.0783
      56    C17     17.789476   21.424462   20.105601 C.3        1 MOL1         0.1043
      57    H27     18.636079   20.978762   20.642054 H          1 MOL1         0.0783
      58    O14     18.165273   22.728896   19.600842 O.3        1 MOL1        -0.3740
      59    C18     17.463299   20.497533   18.907325 C.3        1 MOL1         0.0138
      60    H28     17.636342   19.460428   19.219360 H          1 MOL1         0.0794
      61    H29     18.171970   20.708985   18.095626 H          1 MOL1         0.0794
      62    O15     16.116307   20.639750   18.437811 O.3        1 MOL1        -0.5486
      63    H30     15.519018   20.329263   19.156873 H          1 MOL1         0.3769
      64    C19     23.785001   22.961274   21.763217 C.3        1 MOL1         0.2972
      65    H31     24.867596   23.124532   21.838533 H          1 MOL1         0.0751
      66    O16     23.435823   21.577788   21.961380 O.3        1 MOL1        -0.3740
      67    C20     23.053196   23.790974   22.843013 C.3        1 MOL1         0.1003
      68    H32     23.258152   24.851657   22.648155 H          1 MOL1         0.0783
      69    O17     23.536743   23.439565   24.149516 O.3        1 MOL1        -0.5519
      70    H33     23.766872   22.477999   24.119915 H          1 MOL1         0.3769
      71    C21     21.526273   23.569303   22.754607 C.3        1 MOL1         0.1053
      72    H34     21.322578   22.539003   23.064830 H          1 MOL1         0.0783
      73    O18     20.852483   24.471000   23.638911 O.3        1 MOL1        -0.5519
      74    H35     21.335323   24.398598   24.492008 H          1 MOL1         0.3769
      75    C22     20.987861   23.748527   21.313524 C.3        1 MOL1         0.1018
      76    H36     20.865897   24.822562   21.120860 H          1 MOL1         0.0783
      77    C23     21.889703   23.099543   20.222631 C.3        1 MOL1         0.1043
      78    H37     21.727146   22.014638   20.261554 H          1 MOL1         0.0783
      79    O19     23.292343   23.374455   20.473280 O.3        1 MOL1        -0.3740
      80    C24     21.554701   23.559629   18.783444 C.3        1 MOL1         0.0138
      81    H38     20.592599   23.119435   18.489635 H          1 MOL1         0.0794
      82    H39     22.316614   23.159195   18.101334 H          1 MOL1         0.0794
      83    O20     21.490398   24.986907   18.673635 O.3        1 MOL1        -0.5486
      84    H40     21.342797   25.206707   17.727939 H          1 MOL1         0.3769
      85    C25     25.059905   17.740754   21.757283 C.3        1 MOL1         0.2972
      86    H41     25.748338   16.893096   21.647993 H          1 MOL1         0.0751
      87    O21     23.700653   17.300264   21.943011 O.3        1 MOL1        -0.3740
      88    C26     25.456681   18.576654   22.999381 C.3        1 MOL1         0.1003
      89    H42     26.488803   18.921027   22.854037 H          1 MOL1         0.0783
      90    O22     25.385970   17.768548   24.185145 O.3        1 MOL1        -0.5519
      91    H43     24.662842   17.109761   24.038465 H          1 MOL1         0.3769
      92    C27     24.550060   19.821940   23.137300 C.3        1 MOL1         0.1053
      93    H44     23.534990   19.474510   23.368457 H          1 MOL1         0.0783
      94    O23     25.031575   20.657344   24.196008 O.3        1 MOL1        -0.5519
      95    H45     25.195274   20.045727   24.947752 H          1 MOL1         0.3769
      96    C28     24.499967   20.621781   21.813514 C.3        1 MOL1         0.1018
      97    H46     25.474314   21.104139   21.660778 H          1 MOL1         0.0783
      98    C29     24.176405   19.706185   20.600340 C.3        1 MOL1         0.1043
      99    H47     23.153675   19.327842   20.725493 H          1 MOL1         0.0783
     100    O24     25.103785   18.590687   20.589781 O.3        1 MOL1        -0.3740
     101    C30     24.232242   20.402723   19.215879 C.3        1 MOL1         0.0138
     102    H48     23.245691   20.831506   19.000996 H          1 MOL1         0.0794
     103    H49     24.420132   19.640341   18.448112 H          1 MOL1         0.0794
     104    O25     25.225870   21.430270   19.137911 O.3        1 MOL1        -0.5486
     105    H50     24.820912   22.243343   19.518693 H          1 MOL1         0.3769
     106    C31     21.223498   14.014330   21.126547 C.3        1 MOL1         0.2972
     107    H51     20.877050   13.015966   20.829443 H          1 MOL1         0.0751
     108    O26     20.109783   14.869731   21.442583 O.3        1 MOL1        -0.3740
     109    C32     22.169291   13.888675   22.353195 C.3        1 MOL1         0.1003
     110    H52     22.999040   13.239997   22.044361 H          1 MOL1         0.0783
     111    O27     21.508480   13.280854   23.472522 O.3        1 MOL1        -0.5519
     112    H53     20.760869   13.884741   23.741608 H          1 MOL1         0.3769
     113    C33     22.772038   15.253843   22.756109 C.3        1 MOL1         0.1053
     114    H54     21.963389   15.888176   23.141013 H          1 MOL1         0.0783
     115    O28     23.762467   15.061998   23.772623 O.3        1 MOL1        -0.5519
     116    H55     23.333339   14.476471   24.435691 H          1 MOL1         0.3769
     117    C34     23.408912   15.951238   21.532012 C.3        1 MOL1         0.1018
     118    H56     24.314292   15.398489   21.248693 H          1 MOL1         0.0783
     119    C35     22.429289   15.992759   20.328312 C.3        1 MOL1         0.1043
     120    H57     21.585516   16.628524   20.620121 H          1 MOL1         0.0783
     121    O29     21.951208   14.649504   20.049069 O.3        1 MOL1        -0.3740
     122    C36     23.017313   16.583470   19.020528 C.3        1 MOL1         0.0138
     123    H58     22.891172   17.672699   19.042636 H          1 MOL1         0.0794
     124    H59     22.428268   16.215276   18.170456 H          1 MOL1         0.0794
     125    O30     24.399320   16.264137   18.828435 O.3        1 MOL1        -0.5486
     126    H60     24.915634   16.940208   19.324693 H          1 MOL1         0.3769
     127    C1      18.801492   15.789127   25.051415 C.2        1 MOL1         0.6173
     128    O1      18.108123   15.507975   26.009889 O.co2      1 MOL1        -0.6755
     129    O2      19.630145   15.029313   24.583765 O.co2      1 MOL1        -0.6755
     130    C2      18.617508   17.135285   24.443438 C.2        1 MOL1        -0.1504
     131    H1      17.878957   17.775242   24.919584 H          1 MOL1         0.0814
     132    C3      19.317091   17.572383   23.372731 C.2        1 MOL1        -0.1394
     133    H2      20.060567   16.935723   22.903780 H          1 MOL1         0.0817
     134    C4      19.169868   18.942976   22.752377 C.3        1 MOL1        -0.1849
     135    H3      18.378255   19.514957   23.254431 H          1 MOL1         0.0736
     136    H4      18.860503   18.834766   21.705996 H          1 MOL1         0.0736
     137    C5      20.496415   19.726944   22.815881 C.3        1 MOL1        -0.1866
     138    H5      21.301383   19.132076   22.364224 H          1 MOL1         0.0738
     139    H6      20.405744   20.639285   22.215830 H          1 MOL1         0.0738
     140    C6      20.873727   20.101453   24.265633 C.3        1 MOL1        -0.2879
     141    H7      20.086468   20.710004   24.728734 H          1 MOL1         0.0750
     142    H8      21.017364   19.203210   24.879865 H          1 MOL1         0.0750
     143    H9      21.805892   20.678003   24.293876 H          1 MOL1         0.0750
@<TRIPOS>BOND
    1     1     2    1
    2     1     3    1
    3     1     4    1
    4     4     5    1
    5     4     6    1
    6     6     7    1
    7     4     8    1
    8     8     9    1
    9     8    10    1
   10    10    11    1
   11     8    12    1
   12    12    13    1
   13    12    14    1
   14    14    15    1
   15     1    16    1
   16    14    16    1
   17    14    17    1
   18    17    18    1
   19    17    19    1
   20    17    20    1
   21    20    21    1
   22    22    23    1
   23    22    24    1
   24    22    25    1
   25    25    26    1
   26    25    27    1
   27    27    28    1
   28    25    29    1
   29    29    30    1
   30    29    31    1
   31    31    32    1
   32     3    33    1
   33    29    33    1
   34    33    34    1
   35    33    35    1
   36    35    36    1
   37    22    37    1
   38    35    37    1
   39    35    38    1
   40    38    39    1
   41    38    40    1
   42    38    41    1
   43    41    42    1
   44    43    44    1
   45    43    45    1
   46    43    46    1
   47    46    47    1
   48    46    48    1
   49    48    49    1
   50    46    50    1
   51    50    51    1
   52    50    52    1
   53    52    53    1
   54    24    54    1
   55    50    54    1
   56    54    55    1
   57    54    56    1
   58    56    57    1
   59    43    58    1
   60    56    58    1
   61    56    59    1
   62    59    60    1
   63    59    61    1
   64    59    62    1
   65    62    63    1
   66    64    65    1
   67    64    66    1
   68    64    67    1
   69    67    68    1
   70    67    69    1
   71    69    70    1
   72    67    71    1
   73    71    72    1
   74    71    73    1
   75    73    74    1
   76    45    75    1
   77    71    75    1
   78    75    76    1
   79    75    77    1
   80    77    78    1
   81    64    79    1
   82    77    79    1
   83    77    80    1
   84    80    81    1
   85    80    82    1
   86    80    83    1
   87    83    84    1
   88    85    86    1
   89    85    87    1
   90    85    88    1
   91    88    89    1
   92    88    90    1
   93    90    91    1
   94    88    92    1
   95    92    93    1
   96    92    94    1
   97    94    95    1
   98    66    96    1
   99    92    96    1
  100    96    97    1
  101    96    98    1
  102    98    99    1
  103    85   100    1
  104    98   100    1
  105    98   101    1
  106   101   102    1
  107   101   103    1
  108   101   104    1
  109   104   105    1
  110   106   107    1
  111    12   108    1
  112   106   108    1
  113   106   109    1
  114   109   110    1
  115   109   111    1
  116   111   112    1
  117   109   113    1
  118   113   114    1
  119   113   115    1
  120   115   116    1
  121    87   117    1
  122   113   117    1
  123   117   118    1
  124   117   119    1
  125   119   120    1
  126   106   121    1
  127   119   121    1
  128   119   122    1
  129   122   123    1
  130   122   124    1
  131   122   125    1
  132   125   126    1
  133   127   128    1
  134   127   129    2
  135   127   130    1
  136   130   131    1
  137   130   132    2
  138   132   133    1
  139   132   134    1
  140   134   135    1
  141   134   136    1
  142   134   137    1
  143   137   138    1
  144   137   139    1
  145   137   140    1
  146   140   141    1
  147   140   142    1
  148   140   143    1
@<TRIPOS>SUBSTRUCTURE
       1 MOL1            1 RESIDUE      1      MOL     
       2 MOL1          143 RESIDUE      1      MOL     
@<SCITEGIC>MOL_PROPERTY
feprocess Rank
SciTegic.value.IntegerValue
146

@<SCITEGIC>MOL_PROPERTY
Conf_Id
SciTegic.value.IntegerValue
845

@<SCITEGIC>MOL_PROPERTY
Probability
SciTegic.value.DoubleValue
0.00

@<SCITEGIC>MOL_PROPERTY
G
SciTegic.value.DoubleValue
503.491

@<SCITEGIC>MOL_PROPERTY
E
SciTegic.value.DoubleValue
321.768

@<SCITEGIC>MOL_PROPERTY
-TS
SciTegic.value.DoubleValue
181.723

@<SCITEGIC>MOL_PROPERTY
U+W
SciTegic.value.DoubleValue
195.680

@<SCITEGIC>MOL_PROPERTY
U
SciTegic.value.DoubleValue
278.230

@<SCITEGIC>MOL_PROPERTY
W
SciTegic.value.DoubleValue
-82.551

@<SCITEGIC>MOL_PROPERTY
W(PB)
SciTegic.value.DoubleValue
-88.535

@<SCITEGIC>MOL_PROPERTY
W(SA)
SciTegic.value.DoubleValue
5.985

@<SCITEGIC>MOL_PROPERTY
Valence
SciTegic.value.DoubleValue
149.365

@<SCITEGIC>MOL_PROPERTY
Coulomb
SciTegic.value.DoubleValue
155.208

@<SCITEGIC>MOL_PROPERTY
VdW
SciTegic.value.DoubleValue
-26.343

@<SCITEGIC>MOL_PROPERTY
VdW6
SciTegic.value.DoubleValue
-179.449

@<SCITEGIC>MOL_PROPERTY
VdW12
SciTegic.value.DoubleValue
153.106

@<SCITEGIC>MOL_PROPERTY
Bond
SciTegic.value.DoubleValue
4.828

@<SCITEGIC>MOL_PROPERTY
Angle
SciTegic.value.DoubleValue
14.717

@<SCITEGIC>MOL_PROPERTY
Pdih
SciTegic.value.DoubleValue
129.819

@<SCITEGIC>MOL_PROPERTY
Idih
SciTegic.value.DoubleValue
0.001

@<SCITEGIC>MOL_PROPERTY
Tether
SciTegic.value.DoubleValue
0.000

@<TRIPOS>MOLECULE
CD_guest-s19_fast_vm2_rndm.mol2 : feprocess host+ligand conformer 147
         143         148           2
SMALL
USER_CHARGES
 
@<TRIPOS>ATOM
       1    C1      16.163406   15.031888   21.009767 C.3        1 MOL1         0.2972
       2    H1      15.105820   14.970381   20.723326 H          1 MOL1         0.0751
       3    O1      16.504328   16.341479   21.513250 O.3        1 MOL1        -0.3740
       4    C2      16.459221   13.995035   22.116858 C.3        1 MOL1         0.1003
       5    H2      16.221279   13.000938   21.716614 H          1 MOL1         0.0783
       6    O2      15.641776   14.257433   23.268923 O.3        1 MOL1        -0.5519
       7    H3      15.537612   15.239428   23.326325 H          1 MOL1         0.3769
       8    C3      17.955636   14.013606   22.501208 C.3        1 MOL1         0.1053
       9    H4      18.145538   14.964826   23.009855 H          1 MOL1         0.0783
      10    O3      18.233249   12.929904   23.394244 O.3        1 MOL1        -0.5519
      11    H5      17.525527   12.970797   24.074516 H          1 MOL1         0.3769
      12    C4      18.890877   13.936582   21.265228 C.3        1 MOL1         0.1018
      13    H6      18.914333   12.897224   20.913032 H          1 MOL1         0.0783
      14    C5      18.435905   14.889989   20.118135 C.3        1 MOL1         0.1043
      15    H7      18.636654   15.919381   20.442351 H          1 MOL1         0.0783
      16    O4      17.013688   14.734552   19.884805 O.3        1 MOL1        -0.3740
      17    C6      19.150861   14.699349   18.755581 C.3        1 MOL1         0.0138
      18    H8      20.021269   15.363627   18.721447 H          1 MOL1         0.0794
      19    H9      18.474422   15.031607   17.956637 H          1 MOL1         0.0794
      20    O5      19.563270   13.350987   18.512111 O.3        1 MOL1        -0.5486
      21    H10     20.452791   13.254053   18.920611 H          1 MOL1         0.3769
      22    C7      15.043795   20.293693   21.106962 C.3        1 MOL1         0.2972
      23    H11     14.365700   21.107248   20.818701 H          1 MOL1         0.0751
      24    O6      16.272227   20.803525   21.659369 O.3        1 MOL1        -0.3740
      25    C8      14.375286   19.399206   22.185709 C.3        1 MOL1         0.1003
      26    H12     13.406528   19.074163   21.784700 H          1 MOL1         0.0783
      27    O7      14.159190   20.145851   23.394880 O.3        1 MOL1        -0.5519
      28    H13     14.962533   20.707210   23.537787 H          1 MOL1         0.3769
      29    C9      15.215168   18.129745   22.480157 C.3        1 MOL1         0.1053
      30    H14     16.140561   18.438750   22.985289 H          1 MOL1         0.0783
      31    O8      14.467144   17.247082   23.324606 O.3        1 MOL1        -0.5519
      32    H15     14.124758   17.815260   24.049750 H          1 MOL1         0.3769
      33    C10     15.594782   17.405110   21.166392 C.3        1 MOL1         0.1018
      34    H16     14.674562   17.020477   20.707086 H          1 MOL1         0.0783
      35    C11     16.280729   18.390793   20.182965 C.3        1 MOL1         0.1043
      36    H17     17.202350   18.766863   20.647233 H          1 MOL1         0.0783
      37    O9      15.366376   19.487181   19.953743 O.3        1 MOL1        -0.3740
      38    C12     16.664273   17.802562   18.801902 C.3        1 MOL1         0.0138
      39    H18     17.643640   17.317190   18.887494 H          1 MOL1         0.0794
      40    H19     16.783948   18.632564   18.092962 H          1 MOL1         0.0794
      41    O10     15.703202   16.867207   18.300934 O.3        1 MOL1        -0.5486
      42    H20     15.933400   15.992503   18.690438 H          1 MOL1         0.3769
      43    C13     18.519451   24.303792   21.693675 C.3        1 MOL1         0.2972
      44    H21     18.873258   25.342418   21.673954 H          1 MOL1         0.0751
      45    O11     19.625099   23.377786   21.785271 O.3        1 MOL1        -0.3740
      46    C14     17.565172   24.104087   22.897444 C.3        1 MOL1         0.1003
      47    H22     16.669257   24.704136   22.691921 H          1 MOL1         0.0783
      48    O12     18.143885   24.591689   24.117903 O.3        1 MOL1        -0.5519
      49    H23     18.803385   23.927500   24.448164 H          1 MOL1         0.3769
      50    C15     17.120537   22.621184   22.965278 C.3        1 MOL1         0.1053
      51    H24     18.009193   21.984976   23.063494 H          1 MOL1         0.0783
      52    O13     16.247691   22.392739   24.077533 O.3        1 MOL1        -0.5519
      53    H25     16.854666   22.386127   24.863755 H          1 MOL1         0.3769
      54    C16     16.414741   22.239703   21.644312 C.3        1 MOL1         0.1018
      55    H26     15.441127   22.746983   21.623797 H          1 MOL1         0.0783
      56    C17     17.255860   22.639532   20.394206 C.3        1 MOL1         0.1043
      57    H27     18.106735   21.948727   20.343493 H          1 MOL1         0.0783
      58    O14     17.757545   24.000477   20.506023 O.3        1 MOL1        -0.3740
      59    C18     16.482740   22.541443   19.055966 C.3        1 MOL1         0.0138
      60    H28     16.364404   21.483641   18.790906 H          1 MOL1         0.0794
      61    H29     17.088662   23.003813   18.265376 H          1 MOL1         0.0794
      62    O15     15.199637   23.175587   19.127215 O.3        1 MOL1        -0.5486
      63    H30     14.792456   23.124336   18.235184 H          1 MOL1         0.3769
      64    C19     23.519068   22.667323   20.519259 C.3        1 MOL1         0.2972
      65    H31     24.521805   22.688369   20.073358 H          1 MOL1         0.0751
      66    O16     23.192714   21.354899   21.026550 O.3        1 MOL1        -0.3740
      67    C20     23.386450   23.718165   21.651582 C.3        1 MOL1         0.1003
      68    H32     23.522547   24.707419   21.196209 H          1 MOL1         0.0783
      69    O17     24.401829   23.526095   22.648525 O.3        1 MOL1        -0.5519
      70    H33     24.197719   22.673492   23.107098 H          1 MOL1         0.3769
      71    C21     21.958806   23.667727   22.257944 C.3        1 MOL1         0.1053
      72    H34     21.842309   22.695302   22.750028 H          1 MOL1         0.0783
      73    O18     21.781295   24.713716   23.219914 O.3        1 MOL1        -0.5519
      74    H35     21.236150   24.314728   23.948728 H          1 MOL1         0.3769
      75    C22     20.864098   23.786164   21.160436 C.3        1 MOL1         0.1018
      76    H36     20.830000   24.833563   20.833860 H          1 MOL1         0.0783
      77    C23     21.148245   22.865487   19.930930 C.3        1 MOL1         0.1043
      78    H37     20.963850   21.826031   20.232955 H          1 MOL1         0.0783
      79    O19     22.532555   23.006656   19.525739 O.3        1 MOL1        -0.3740
      80    C24     20.285958   23.132138   18.668849 C.3        1 MOL1         0.0138
      81    H38     19.406645   22.480422   18.695834 H          1 MOL1         0.0794
      82    H39     20.863286   22.829920   17.784746 H          1 MOL1         0.0794
      83    O20     19.876317   24.497214   18.533672 O.3        1 MOL1        -0.5486
      84    H40     19.106828   24.621325   19.137290 H          1 MOL1         0.3769
      85    C25     24.771787   17.674335   22.062895 C.3        1 MOL1         0.2972
      86    H41     25.417064   16.829837   22.338270 H          1 MOL1         0.0751
      87    O21     23.417700   17.246941   21.820851 O.3        1 MOL1        -0.3740
      88    C26     24.762432   18.715265   23.205926 C.3        1 MOL1         0.1003
      89    H42     25.795372   19.060676   23.343429 H          1 MOL1         0.0783
      90    O22     24.295026   18.123386   24.429121 O.3        1 MOL1        -0.5519
      91    H43     23.945248   17.227671   24.200080 H          1 MOL1         0.3769
      92    C27     23.895349   19.937902   22.831831 C.3        1 MOL1         0.1053
      93    H44     22.850044   19.610392   22.773694 H          1 MOL1         0.0783
      94    O23     24.038717   20.928645   23.853298 O.3        1 MOL1        -0.5519
      95    H45     23.931535   20.432972   24.696064 H          1 MOL1         0.3769
      96    C28     24.289569   20.520174   21.450736 C.3        1 MOL1         0.1018
      97    H46     25.223983   21.087088   21.558134 H          1 MOL1         0.0783
      98    C29     24.452778   19.416054   20.366793 C.3        1 MOL1         0.1043
      99    H47     23.450517   19.043455   20.120995 H          1 MOL1         0.0783
     100    O24     25.256508   18.314649   20.864059 O.3        1 MOL1        -0.3740
     101    C30     25.085737   19.928936   19.051209 C.3        1 MOL1         0.0138
     102    H48     24.358412   20.577354   18.544113 H          1 MOL1         0.0794
     103    H49     25.271364   19.069954   18.392317 H          1 MOL1         0.0794
     104    O25     26.301169   20.651466   19.283494 O.3        1 MOL1        -0.5486
     105    H50     26.687426   20.874337   18.408438 H          1 MOL1         0.3769
     106    C31     21.341272   13.633689   21.359089 C.3        1 MOL1         0.2972
     107    H51     21.093180   12.588556   21.134486 H          1 MOL1         0.0751
     108    O26     20.173828   14.374614   21.754702 O.3        1 MOL1        -0.3740
     109    C32     22.329396   13.698325   22.553486 C.3        1 MOL1         0.1003
     110    H52     23.225167   13.127124   22.277126 H          1 MOL1         0.0783
     111    O27     21.731132   13.114239   23.720868 O.3        1 MOL1        -0.5519
     112    H53     20.782780   13.386438   23.708862 H          1 MOL1         0.3769
     113    C33     22.758506   15.157726   22.847261 C.3        1 MOL1         0.1053
     114    H54     21.882639   15.711690   23.209903 H          1 MOL1         0.0783
     115    O28     23.782212   15.165065   23.847560 O.3        1 MOL1        -0.5519
     116    H55     23.466056   14.542321   24.539908 H          1 MOL1         0.3769
     117    C34     23.264809   15.841168   21.555464 C.3        1 MOL1         0.1018
     118    H56     24.214475   15.376052   21.258965 H          1 MOL1         0.0783
     119    C35     22.252479   15.690208   20.391821 C.3        1 MOL1         0.1043
     120    H57     21.336231   16.232499   20.660675 H          1 MOL1         0.0783
     121    O29     21.945294   14.282896   20.215754 O.3        1 MOL1        -0.3740
     122    C36     22.753326   16.274375   19.043428 C.3        1 MOL1         0.0138
     123    H58     22.466179   17.332676   18.998553 H          1 MOL1         0.0794
     124    H59     22.230948   15.767467   18.221669 H          1 MOL1         0.0794
     125    O30     24.170894   16.157580   18.865397 O.3        1 MOL1        -0.5486
     126    H60     24.599135   16.769792   19.507904 H          1 MOL1         0.3769
     127    C1      19.758276   22.093860   25.172819 C.2        1 MOL1         0.6173
     128    O1      20.390015   23.131866   25.125324 O.co2      1 MOL1        -0.6755
     129    O2      18.632267   22.037793   25.631345 O.co2      1 MOL1        -0.6755
     130    C2      20.327378   20.917656   24.466148 C.2        1 MOL1        -0.1504
     131    H1      21.331337   21.040325   24.074411 H          1 MOL1         0.0814
     132    C3      19.661447   19.760115   24.268685 C.2        1 MOL1        -0.1394
     133    H2      18.645824   19.630892   24.642455 H          1 MOL1         0.0817
     134    C4      20.248649   18.599607   23.495806 C.3        1 MOL1        -0.1849
     135    H3      21.261127   18.376958   23.857488 H          1 MOL1         0.0736
     136    H4      20.348592   18.884621   22.440196 H          1 MOL1         0.0736
     137    C5      19.384186   17.329310   23.593756 C.3        1 MOL1        -0.1866
     138    H5      18.344578   17.560072   23.326783 H          1 MOL1         0.0738
     139    H6      19.744046   16.609828   22.852221 H          1 MOL1         0.0738
     140    C6      19.442674   16.689648   24.997614 C.3        1 MOL1        -0.2879
     141    H7      19.068882   17.382708   25.762059 H          1 MOL1         0.0750
     142    H8      18.830460   15.780560   25.041038 H          1 MOL1         0.0750
     143    H9      20.472771   16.416294   25.260219 H          1 MOL1         0.0750
@<TRIPOS>BOND
    1     1     2    1
    2     1     3    1
    3     1     4    1
    4     4     5    1
    5     4     6    1
    6     6     7    1
    7     4     8    1
    8     8     9    1
    9     8    10    1
   10    10    11    1
   11     8    12    1
   12    12    13    1
   13    12    14    1
   14    14    15    1
   15     1    16    1
   16    14    16    1
   17    14    17    1
   18    17    18    1
   19    17    19    1
   20    17    20    1
   21    20    21    1
   22    22    23    1
   23    22    24    1
   24    22    25    1
   25    25    26    1
   26    25    27    1
   27    27    28    1
   28    25    29    1
   29    29    30    1
   30    29    31    1
   31    31    32    1
   32     3    33    1
   33    29    33    1
   34    33    34    1
   35    33    35    1
   36    35    36    1
   37    22    37    1
   38    35    37    1
   39    35    38    1
   40    38    39    1
   41    38    40    1
   42    38    41    1
   43    41    42    1
   44    43    44    1
   45    43    45    1
   46    43    46    1
   47    46    47    1
   48    46    48    1
   49    48    49    1
   50    46    50    1
   51    50    51    1
   52    50    52    1
   53    52    53    1
   54    24    54    1
   55    50    54    1
   56    54    55    1
   57    54    56    1
   58    56    57    1
   59    43    58    1
   60    56    58    1
   61    56    59    1
   62    59    60    1
   63    59    61    1
   64    59    62    1
   65    62    63    1
   66    64    65    1
   67    64    66    1
   68    64    67    1
   69    67    68    1
   70    67    69    1
   71    69    70    1
   72    67    71    1
   73    71    72    1
   74    71    73    1
   75    73    74    1
   76    45    75    1
   77    71    75    1
   78    75    76    1
   79    75    77    1
   80    77    78    1
   81    64    79    1
   82    77    79    1
   83    77    80    1
   84    80    81    1
   85    80    82    1
   86    80    83    1
   87    83    84    1
   88    85    86    1
   89    85    87    1
   90    85    88    1
   91    88    89    1
   92    88    90    1
   93    90    91    1
   94    88    92    1
   95    92    93    1
   96    92    94    1
   97    94    95    1
   98    66    96    1
   99    92    96    1
  100    96    97    1
  101    96    98    1
  102    98    99    1
  103    85   100    1
  104    98   100    1
  105    98   101    1
  106   101   102    1
  107   101   103    1
  108   101   104    1
  109   104   105    1
  110   106   107    1
  111    12   108    1
  112   106   108    1
  113   106   109    1
  114   109   110    1
  115   109   111    1
  116   111   112    1
  117   109   113    1
  118   113   114    1
  119   113   115    1
  120   115   116    1
  121    87   117    1
  122   113   117    1
  123   117   118    1
  124   117   119    1
  125   119   120    1
  126   106   121    1
  127   119   121    1
  128   119   122    1
  129   122   123    1
  130   122   124    1
  131   122   125    1
  132   125   126    1
  133   127   128    1
  134   127   129    2
  135   127   130    1
  136   130   131    1
  137   130   132    2
  138   132   133    1
  139   132   134    1
  140   134   135    1
  141   134   136    1
  142   134   137    1
  143   137   138    1
  144   137   139    1
  145   137   140    1
  146   140   141    1
  147   140   142    1
  148   140   143    1
@<TRIPOS>SUBSTRUCTURE
       1 MOL1            1 RESIDUE      1      MOL     
       2 MOL1          143 RESIDUE      1      MOL     
@<SCITEGIC>MOL_PROPERTY
feprocess Rank
SciTegic.value.IntegerValue
147

@<SCITEGIC>MOL_PROPERTY
Conf_Id
SciTegic.value.IntegerValue
356

@<SCITEGIC>MOL_PROPERTY
Probability
SciTegic.value.DoubleValue
0.00

@<SCITEGIC>MOL_PROPERTY
G
SciTegic.value.DoubleValue
503.605

@<SCITEGIC>MOL_PROPERTY
E
SciTegic.value.DoubleValue
320.728

@<SCITEGIC>MOL_PROPERTY
-TS
SciTegic.value.DoubleValue
182.877

@<SCITEGIC>MOL_PROPERTY
U+W
SciTegic.value.DoubleValue
194.640

@<SCITEGIC>MOL_PROPERTY
U
SciTegic.value.DoubleValue
272.478

@<SCITEGIC>MOL_PROPERTY
W
SciTegic.value.DoubleValue
-77.838

@<SCITEGIC>MOL_PROPERTY
W(PB)
SciTegic.value.DoubleValue
-83.886

@<SCITEGIC>MOL_PROPERTY
W(SA)
SciTegic.value.DoubleValue
6.048

@<SCITEGIC>MOL_PROPERTY
Valence
SciTegic.value.DoubleValue
152.987

@<SCITEGIC>MOL_PROPERTY
Coulomb
SciTegic.value.DoubleValue
140.912

@<SCITEGIC>MOL_PROPERTY
VdW
SciTegic.value.DoubleValue
-21.421

@<SCITEGIC>MOL_PROPERTY
VdW6
SciTegic.value.DoubleValue
-178.318

@<SCITEGIC>MOL_PROPERTY
VdW12
SciTegic.value.DoubleValue
156.897

@<SCITEGIC>MOL_PROPERTY
Bond
SciTegic.value.DoubleValue
5.104

@<SCITEGIC>MOL_PROPERTY
Angle
SciTegic.value.DoubleValue
15.174

@<SCITEGIC>MOL_PROPERTY
Pdih
SciTegic.value.DoubleValue
132.652

@<SCITEGIC>MOL_PROPERTY
Idih
SciTegic.value.DoubleValue
0.057

@<SCITEGIC>MOL_PROPERTY
Tether
SciTegic.value.DoubleValue
0.000

@<TRIPOS>MOLECULE
CD_guest-s19_fast_vm2_rndm.mol2 : feprocess host+ligand conformer 148
         143         148           2
SMALL
USER_CHARGES
 
@<TRIPOS>ATOM
       1    C1      16.199030   15.175780   21.288701 C.3        1 MOL1         0.2972
       2    H1      15.136168   15.031450   21.055985 H          1 MOL1         0.0751
       3    O1      16.495107   16.564553   21.542801 O.3        1 MOL1        -0.3740
       4    C2      16.561962   14.354501   22.549991 C.3        1 MOL1         0.1003
       5    H2      16.313748   13.305443   22.342715 H          1 MOL1         0.0783
       6    O2      15.793530   14.811730   23.673927 O.3        1 MOL1        -0.5519
       7    H3      15.600461   15.766655   23.510849 H          1 MOL1         0.3769
       8    C3      18.074961   14.432566   22.861061 C.3        1 MOL1         0.1053
       9    H4      18.295431   15.453970   23.192274 H          1 MOL1         0.0783
      10    O3      18.392918   13.509661   23.908355 O.3        1 MOL1        -0.5519
      11    H5      17.717824   13.669502   24.604251 H          1 MOL1         0.3769
      12    C4      18.935458   14.126219   21.608795 C.3        1 MOL1         0.1018
      13    H6      18.872354   13.049342   21.404666 H          1 MOL1         0.0783
      14    C5      18.450291   14.929018   20.367221 C.3        1 MOL1         0.1043
      15    H7      18.648681   15.991269   20.558947 H          1 MOL1         0.0783
      16    O4      17.024974   14.728359   20.194592 O.3        1 MOL1        -0.3740
      17    C6      19.137431   14.573746   19.024326 C.3        1 MOL1         0.0138
      18    H8      20.045803   15.179274   18.926788 H          1 MOL1         0.0794
      19    H9      18.472801   14.870523   18.202002 H          1 MOL1         0.0794
      20    O5      19.465913   13.186000   18.906142 O.3        1 MOL1        -0.5486
      21    H10     20.384140   13.087707   19.244190 H          1 MOL1         0.3769
      22    C7      15.041627   20.368773   20.491518 C.3        1 MOL1         0.2972
      23    H11     14.446826   21.177006   20.046747 H          1 MOL1         0.0751
      24    O6      16.217817   20.873867   21.145914 O.3        1 MOL1        -0.3740
      25    C8      14.210647   19.579775   21.538552 C.3        1 MOL1         0.1003
      26    H12     13.321465   19.193210   21.023893 H          1 MOL1         0.0783
      27    O7      13.796072   20.433453   22.617738 O.3        1 MOL1        -0.5519
      28    H13     14.599233   20.919338   22.935339 H          1 MOL1         0.3769
      29    C9      15.006485   18.368368   22.088087 C.3        1 MOL1         0.1053
      30    H14     15.842059   18.751005   22.689036 H          1 MOL1         0.0783
      31    O8      14.149267   17.565517   22.907218 O.3        1 MOL1        -0.5519
      32    H15     13.684630   18.202102   23.494505 H          1 MOL1         0.3769
      33    C10     15.588864   17.510821   20.937173 C.3        1 MOL1         0.1018
      34    H16     14.754708   17.010942   20.427384 H          1 MOL1         0.0783
      35    C11     16.356307   18.387304   19.907432 C.3        1 MOL1         0.1043
      36    H17     17.235995   18.817675   20.402461 H          1 MOL1         0.0783
      37    O9      15.475647   19.449644   19.467280 O.3        1 MOL1        -0.3740
      38    C12     16.863282   17.646472   18.644737 C.3        1 MOL1         0.0138
      39    H18     17.849337   17.220376   18.861652 H          1 MOL1         0.0794
      40    H19     17.010323   18.385102   17.845523 H          1 MOL1         0.0794
      41    O10     15.975073   16.615588   18.198890 O.3        1 MOL1        -0.5486
      42    H20     16.140489   15.830674   18.771357 H          1 MOL1         0.3769
      43    C13     18.437859   24.258769   21.763099 C.3        1 MOL1         0.2972
      44    H21     18.860214   25.261216   21.908838 H          1 MOL1         0.0751
      45    O11     19.459599   23.245887   21.704987 O.3        1 MOL1        -0.3740
      46    C14     17.481352   23.910869   22.928336 C.3        1 MOL1         0.1003
      47    H22     16.645464   24.621825   22.897620 H          1 MOL1         0.0783
      48    O12     18.154745   24.023799   24.192048 O.3        1 MOL1        -0.5519
      49    H23     19.117675   23.868280   24.022602 H          1 MOL1         0.3769
      50    C15     16.908466   22.488009   22.744506 C.3        1 MOL1         0.1053
      51    H24     17.735919   21.775641   22.854408 H          1 MOL1         0.0783
      52    O13     15.918520   22.233714   23.747237 O.3        1 MOL1        -0.5519
      53    H25     16.331454   22.530237   24.588819 H          1 MOL1         0.3769
      54    C16     16.289497   22.298111   21.338231 C.3        1 MOL1         0.1018
      55    H26     15.295705   22.765268   21.332693 H          1 MOL1         0.0783
      56    C17     17.166901   22.879743   20.188566 C.3        1 MOL1         0.1043
      57    H27     18.010621   22.195490   20.036390 H          1 MOL1         0.0783
      58    O14     17.682824   24.192160   20.536382 O.3        1 MOL1        -0.3740
      59    C18     16.427383   22.991964   18.833939 C.3        1 MOL1         0.0138
      60    H28     16.276719   21.980706   18.432750 H          1 MOL1         0.0794
      61    H29     17.073078   23.529082   18.126214 H          1 MOL1         0.0794
      62    O15     15.165247   23.658505   18.960917 O.3        1 MOL1        -0.5486
      63    H30     14.792803   23.765942   18.058521 H          1 MOL1         0.3769
      64    C19     23.575148   22.743440   21.379541 C.3        1 MOL1         0.2972
      65    H31     24.651972   22.896472   21.232259 H          1 MOL1         0.0751
      66    O16     23.256420   21.353882   21.591243 O.3        1 MOL1        -0.3740
      67    C20     23.094923   23.541976   22.617900 C.3        1 MOL1         0.1003
      68    H32     23.291554   24.603900   22.421078 H          1 MOL1         0.0783
      69    O17     23.810184   23.143309   23.797631 O.3        1 MOL1        -0.5519
      70    H33     24.151687   22.228129   23.634927 H          1 MOL1         0.3769
      71    C21     21.572379   23.370418   22.823016 C.3        1 MOL1         0.1053
      72    H34     21.373444   22.320750   23.081935 H          1 MOL1         0.0783
      73    O18     21.135298   24.224728   23.884733 O.3        1 MOL1        -0.5519
      74    H35     21.803519   24.101362   24.596016 H          1 MOL1         0.3769
      75    C22     20.808093   23.705113   21.520281 C.3        1 MOL1         0.1018
      76    H36     20.859161   24.788255   21.348408 H          1 MOL1         0.0783
      77    C23     21.398532   22.961122   20.289808 C.3        1 MOL1         0.1043
      78    H37     21.221156   21.889012   20.425030 H          1 MOL1         0.0783
      79    O19     22.829407   23.195053   20.225158 O.3        1 MOL1        -0.3740
      80    C24     20.755481   23.345162   18.931851 C.3        1 MOL1         0.0138
      81    H38     19.894872   22.686365   18.758609 H          1 MOL1         0.0794
      82    H39     21.478514   23.141367   18.130732 H          1 MOL1         0.0794
      83    O20     20.326089   24.710379   18.873802 O.3        1 MOL1        -0.5486
      84    H40     19.480684   24.766192   19.375913 H          1 MOL1         0.3769
      85    C25     25.018927   17.559486   21.260753 C.3        1 MOL1         0.2972
      86    H41     25.728914   16.759675   21.016091 H          1 MOL1         0.0751
      87    O21     23.817814   17.020604   21.853113 O.3        1 MOL1        -0.3740
      88    C26     25.683443   18.548415   22.258706 C.3        1 MOL1         0.1003
      89    H42     26.590765   18.928161   21.771561 H          1 MOL1         0.0783
      90    O22     26.055483   17.894719   23.479632 O.3        1 MOL1        -0.5519
      91    H43     25.207469   17.720199   23.970817 H          1 MOL1         0.3769
      92    C27     24.766973   19.757718   22.559071 C.3        1 MOL1         0.1053
      93    H44     23.884902   19.401335   23.108204 H          1 MOL1         0.0783
      94    O23     25.482950   20.714891   23.346967 O.3        1 MOL1        -0.5519
      95    H45     25.893421   20.191338   24.071035 H          1 MOL1         0.3769
      96    C28     24.284195   20.408931   21.245004 C.3        1 MOL1         0.1018
      97    H46     25.139930   20.890710   20.753829 H          1 MOL1         0.0783
      98    C29     23.677489   19.353869   20.282676 C.3        1 MOL1         0.1043
      99    H47     22.786157   18.924308   20.756553 H          1 MOL1         0.0783
     100    O24     24.654678   18.301695   20.071937 O.3        1 MOL1        -0.3740
     101    C30     23.231577   19.923960   18.910176 C.3        1 MOL1         0.0138
     102    H48     22.194503   20.271910   19.002149 H          1 MOL1         0.0794
     103    H49     23.231632   19.111205   18.172558 H          1 MOL1         0.0794
     104    O25     24.054799   21.001592   18.448792 O.3        1 MOL1        -0.5486
     105    H50     23.798734   21.800573   18.965228 H          1 MOL1         0.3769
     106    C31     21.341701   13.636606   21.572220 C.3        1 MOL1         0.2972
     107    H51     20.967264   12.618623   21.406027 H          1 MOL1         0.0751
     108    O26     20.276921   14.534245   21.946066 O.3        1 MOL1        -0.3740
     109    C32     22.372458   13.627461   22.725950 C.3        1 MOL1         0.1003
     110    H52     23.181023   12.937707   22.452489 H          1 MOL1         0.0783
     111    O27     21.726555   13.159586   23.922044 O.3        1 MOL1        -0.5519
     112    H53     20.843051   13.597387   23.951174 H          1 MOL1         0.3769
     113    C33     22.989132   15.036450   22.925352 C.3        1 MOL1         0.1053
     114    H54     22.195189   15.690402   23.302521 H          1 MOL1         0.0783
     115    O28     24.058208   14.987062   23.875579 O.3        1 MOL1        -0.5519
     116    H55     24.099381   15.899317   24.262981 H          1 MOL1         0.3769
     117    C34     23.516139   15.629665   21.590174 C.3        1 MOL1         0.1018
     118    H56     24.416316   15.070133   21.304367 H          1 MOL1         0.0783
     119    C35     22.447359   15.516424   20.461487 C.3        1 MOL1         0.1043
     120    H57     21.606975   16.173633   20.722174 H          1 MOL1         0.0783
     121    O29     21.982094   14.145116   20.385266 O.3        1 MOL1        -0.3740
     122    C36     22.915880   15.916059   19.039316 C.3        1 MOL1         0.0138
     123    H58     22.764817   16.993892   18.912083 H          1 MOL1         0.0794
     124    H59     22.267278   15.420834   18.305002 H          1 MOL1         0.0794
     125    O30     24.282211   15.581616   18.777060 O.3        1 MOL1        -0.5486
     126    H60     24.810551   16.376106   19.014949 H          1 MOL1         0.3769
     127    C1      22.727768   17.684929   25.675513 C.2        1 MOL1         0.6173
     128    O1      23.660371   17.618110   24.893943 O.co2      1 MOL1        -0.6755
     129    O2      22.869109   17.596685   26.879738 O.co2      1 MOL1        -0.6755
     130    C2      21.334740   17.801938   25.159749 C.2        1 MOL1        -0.1504
     131    H1      20.551055   17.741680   25.910911 H          1 MOL1         0.0814
     132    C3      21.013025   17.948392   23.853725 C.2        1 MOL1        -0.1394
     133    H2      21.788190   18.017332   23.094133 H          1 MOL1         0.0817
     134    C4      19.589461   17.969669   23.337567 C.3        1 MOL1        -0.1849
     135    H3      18.897489   17.679928   24.139419 H          1 MOL1         0.0736
     136    H4      19.478969   17.216843   22.548495 H          1 MOL1         0.0736
     137    C5      19.162843   19.342562   22.784487 C.3        1 MOL1        -0.1866
     138    H5      18.078065   19.335567   22.623075 H          1 MOL1         0.0738
     139    H6      19.366291   20.125230   23.528122 H          1 MOL1         0.0738
     140    C6      19.862200   19.682644   21.455146 C.3        1 MOL1        -0.2879
     141    H7      19.751560   18.869264   20.727320 H          1 MOL1         0.0750
     142    H8      19.426493   20.589124   21.020896 H          1 MOL1         0.0750
     143    H9      20.930095   19.860450   21.622099 H          1 MOL1         0.0750
@<TRIPOS>BOND
    1     1     2    1
    2     1     3    1
    3     1     4    1
    4     4     5    1
    5     4     6    1
    6     6     7    1
    7     4     8    1
    8     8     9    1
    9     8    10    1
   10    10    11    1
   11     8    12    1
   12    12    13    1
   13    12    14    1
   14    14    15    1
   15     1    16    1
   16    14    16    1
   17    14    17    1
   18    17    18    1
   19    17    19    1
   20    17    20    1
   21    20    21    1
   22    22    23    1
   23    22    24    1
   24    22    25    1
   25    25    26    1
   26    25    27    1
   27    27    28    1
   28    25    29    1
   29    29    30    1
   30    29    31    1
   31    31    32    1
   32     3    33    1
   33    29    33    1
   34    33    34    1
   35    33    35    1
   36    35    36    1
   37    22    37    1
   38    35    37    1
   39    35    38    1
   40    38    39    1
   41    38    40    1
   42    38    41    1
   43    41    42    1
   44    43    44    1
   45    43    45    1
   46    43    46    1
   47    46    47    1
   48    46    48    1
   49    48    49    1
   50    46    50    1
   51    50    51    1
   52    50    52    1
   53    52    53    1
   54    24    54    1
   55    50    54    1
   56    54    55    1
   57    54    56    1
   58    56    57    1
   59    43    58    1
   60    56    58    1
   61    56    59    1
   62    59    60    1
   63    59    61    1
   64    59    62    1
   65    62    63    1
   66    64    65    1
   67    64    66    1
   68    64    67    1
   69    67    68    1
   70    67    69    1
   71    69    70    1
   72    67    71    1
   73    71    72    1
   74    71    73    1
   75    73    74    1
   76    45    75    1
   77    71    75    1
   78    75    76    1
   79    75    77    1
   80    77    78    1
   81    64    79    1
   82    77    79    1
   83    77    80    1
   84    80    81    1
   85    80    82    1
   86    80    83    1
   87    83    84    1
   88    85    86    1
   89    85    87    1
   90    85    88    1
   91    88    89    1
   92    88    90    1
   93    90    91    1
   94    88    92    1
   95    92    93    1
   96    92    94    1
   97    94    95    1
   98    66    96    1
   99    92    96    1
  100    96    97    1
  101    96    98    1
  102    98    99    1
  103    85   100    1
  104    98   100    1
  105    98   101    1
  106   101   102    1
  107   101   103    1
  108   101   104    1
  109   104   105    1
  110   106   107    1
  111    12   108    1
  112   106   108    1
  113   106   109    1
  114   109   110    1
  115   109   111    1
  116   111   112    1
  117   109   113    1
  118   113   114    1
  119   113   115    1
  120   115   116    1
  121    87   117    1
  122   113   117    1
  123   117   118    1
  124   117   119    1
  125   119   120    1
  126   106   121    1
  127   119   121    1
  128   119   122    1
  129   122   123    1
  130   122   124    1
  131   122   125    1
  132   125   126    1
  133   127   128    1
  134   127   129    2
  135   127   130    1
  136   130   131    1
  137   130   132    2
  138   132   133    1
  139   132   134    1
  140   134   135    1
  141   134   136    1
  142   134   137    1
  143   137   138    1
  144   137   139    1
  145   137   140    1
  146   140   141    1
  147   140   142    1
  148   140   143    1
@<TRIPOS>SUBSTRUCTURE
       1 MOL1            1 RESIDUE      1      MOL     
       2 MOL1          143 RESIDUE      1      MOL     
@<SCITEGIC>MOL_PROPERTY
feprocess Rank
SciTegic.value.IntegerValue
148

@<SCITEGIC>MOL_PROPERTY
Conf_Id
SciTegic.value.IntegerValue
507

@<SCITEGIC>MOL_PROPERTY
Probability
SciTegic.value.DoubleValue
0.00

@<SCITEGIC>MOL_PROPERTY
G
SciTegic.value.DoubleValue
503.606

@<SCITEGIC>MOL_PROPERTY
E
SciTegic.value.DoubleValue
321.849

@<SCITEGIC>MOL_PROPERTY
-TS
SciTegic.value.DoubleValue
181.757

@<SCITEGIC>MOL_PROPERTY
U+W
SciTegic.value.DoubleValue
195.761

@<SCITEGIC>MOL_PROPERTY
U
SciTegic.value.DoubleValue
275.495

@<SCITEGIC>MOL_PROPERTY
W
SciTegic.value.DoubleValue
-79.735

@<SCITEGIC>MOL_PROPERTY
W(PB)
SciTegic.value.DoubleValue
-85.811

@<SCITEGIC>MOL_PROPERTY
W(SA)
SciTegic.value.DoubleValue
6.077

@<SCITEGIC>MOL_PROPERTY
Valence
SciTegic.value.DoubleValue
153.738

@<SCITEGIC>MOL_PROPERTY
Coulomb
SciTegic.value.DoubleValue
145.845

@<SCITEGIC>MOL_PROPERTY
VdW
SciTegic.value.DoubleValue
-24.088

@<SCITEGIC>MOL_PROPERTY
VdW6
SciTegic.value.DoubleValue
-179.449

@<SCITEGIC>MOL_PROPERTY
VdW12
SciTegic.value.DoubleValue
155.362

@<SCITEGIC>MOL_PROPERTY
Bond
SciTegic.value.DoubleValue
4.871

@<SCITEGIC>MOL_PROPERTY
Angle
SciTegic.value.DoubleValue
13.848

@<SCITEGIC>MOL_PROPERTY
Pdih
SciTegic.value.DoubleValue
135.004

@<SCITEGIC>MOL_PROPERTY
Idih
SciTegic.value.DoubleValue
0.015

@<SCITEGIC>MOL_PROPERTY
Tether
SciTegic.value.DoubleValue
0.000

@<TRIPOS>MOLECULE
CD_guest-s19_fast_vm2_rndm.mol2 : feprocess host+ligand conformer 149
         143         148           2
SMALL
USER_CHARGES
 
@<TRIPOS>ATOM
       1    C1      16.253555   14.868457   22.044343 C.3        1 MOL1         0.2972
       2    H1      15.218823   14.721712   22.379255 H          1 MOL1         0.0751
       3    O1      16.597846   16.273085   22.006710 O.3        1 MOL1        -0.3740
       4    C2      17.216712   14.110677   22.992538 C.3        1 MOL1         0.1003
       5    H2      17.001968   13.039479   22.886562 H          1 MOL1         0.0783
       6    O2      16.989459   14.494456   24.358846 O.3        1 MOL1        -0.5519
       7    H3      17.860005   14.742571   24.762242 H          1 MOL1         0.3769
       8    C3      18.684036   14.339171   22.563268 C.3        1 MOL1         0.1053
       9    H4      18.912199   15.398296   22.726030 H          1 MOL1         0.0783
      10    O3      19.568847   13.519708   23.340030 O.3        1 MOL1        -0.5519
      11    H5      19.688777   13.980937   24.211200 H          1 MOL1         0.3769
      12    C4      18.916547   14.058877   21.057927 C.3        1 MOL1         0.1018
      13    H6      19.102257   12.986668   20.911204 H          1 MOL1         0.0783
      14    C5      17.760777   14.552689   20.140822 C.3        1 MOL1         0.1043
      15    H7      17.900344   15.633142   20.023885 H          1 MOL1         0.0783
      16    O4      16.452049   14.317527   20.725578 O.3        1 MOL1        -0.3740
      17    C6      17.789038   13.934704   18.722910 C.3        1 MOL1         0.0138
      18    H8      18.661635   14.331376   18.186617 H          1 MOL1         0.0794
      19    H9      16.893954   14.263484   18.177817 H          1 MOL1         0.0794
      20    O5      17.850477   12.504125   18.761149 O.3        1 MOL1        -0.5486
      21    H10     17.787742   12.177382   17.837010 H          1 MOL1         0.3769
      22    C7      15.008674   20.097452   21.483321 C.3        1 MOL1         0.2972
      23    H11     14.337819   20.947928   21.303912 H          1 MOL1         0.0751
      24    O6      16.375315   20.535294   21.618236 O.3        1 MOL1        -0.3740
      25    C8      14.576734   19.369640   22.776737 C.3        1 MOL1         0.1003
      26    H12     13.533757   19.056105   22.638724 H          1 MOL1         0.0783
      27    O7      14.653932   20.262210   23.898805 O.3        1 MOL1        -0.5519
      28    H13     15.258228   20.993540   23.629920 H          1 MOL1         0.3769
      29    C9      15.420547   18.098630   23.030408 C.3        1 MOL1         0.1053
      30    H14     16.437420   18.410295   23.303333 H          1 MOL1         0.0783
      31    O8      14.824875   17.375175   24.110923 O.3        1 MOL1        -0.5519
      32    H15     14.715739   18.033927   24.830879 H          1 MOL1         0.3769
      33    C10     15.509621   17.195749   21.770600 C.3        1 MOL1         0.1018
      34    H16     14.549596   16.677657   21.648210 H          1 MOL1         0.0783
      35    C11     15.826675   18.014003   20.482186 C.3        1 MOL1         0.1043
      36    H17     16.863177   18.361031   20.563038 H          1 MOL1         0.0783
      37    O9      14.943164   19.160320   20.390241 O.3        1 MOL1        -0.3740
      38    C12     15.698481   17.238644   19.142833 C.3        1 MOL1         0.0138
      39    H18     16.681723   16.848700   18.859176 H          1 MOL1         0.0794
      40    H19     15.416672   17.949227   18.354207 H          1 MOL1         0.0794
      41    O10     14.743221   16.172782   19.190032 O.3        1 MOL1        -0.5486
      42    H20     15.151320   15.440026   19.708781 H          1 MOL1         0.3769
      43    C13     18.598398   23.974066   20.566713 C.3        1 MOL1         0.2972
      44    H21     18.892054   24.896879   20.049868 H          1 MOL1         0.0751
      45    O11     19.619115   23.551912   21.491467 O.3        1 MOL1        -0.3740
      46    C14     17.297452   24.210802   21.382183 C.3        1 MOL1         0.1003
      47    H22     16.539920   24.595204   20.686878 H          1 MOL1         0.0783
      48    O12     17.531048   25.179790   22.415187 O.3        1 MOL1        -0.5519
      49    H23     18.388580   24.929404   22.831737 H          1 MOL1         0.3769
      50    C15     16.753706   22.897478   22.003035 C.3        1 MOL1         0.1053
      51    H24     17.445069   22.578748   22.792938 H          1 MOL1         0.0783
      52    O13     15.459005   23.135842   22.564735 O.3        1 MOL1        -0.5519
      53    H25     15.552943   23.960263   23.091278 H          1 MOL1         0.3769
      54    C16     16.676723   21.772880   20.942310 C.3        1 MOL1         0.1018
      55    H26     15.899978   22.032360   20.210412 H          1 MOL1         0.0783
      56    C17     18.024911   21.623025   20.192846 C.3        1 MOL1         0.1043
      57    H27     18.799914   21.328187   20.909388 H          1 MOL1         0.0783
      58    O14     18.358580   22.907769   19.620729 O.3        1 MOL1        -0.3740
      59    C18     18.022590   20.568747   19.057473 C.3        1 MOL1         0.0138
      60    H28     18.258687   19.590061   19.492541 H          1 MOL1         0.0794
      61    H29     18.834986   20.806443   18.357989 H          1 MOL1         0.0794
      62    O15     16.774604   20.502126   18.356071 O.3        1 MOL1        -0.5486
      63    H30     16.098811   20.164058   18.988090 H          1 MOL1         0.3769
      64    C19     23.704188   22.924222   21.417301 C.3        1 MOL1         0.2972
      65    H31     24.797759   22.955449   21.327579 H          1 MOL1         0.0751
      66    O16     23.226994   21.585146   21.653652 O.3        1 MOL1        -0.3740
      67    C20     23.211446   23.850781   22.553875 C.3        1 MOL1         0.1003
      68    H32     23.496231   24.876390   22.285090 H          1 MOL1         0.0783
      69    O17     23.818074   23.510787   23.810476 O.3        1 MOL1        -0.5519
      70    H33     23.624817   22.553988   23.982373 H          1 MOL1         0.3769
      71    C21     21.669520   23.797245   22.660614 C.3        1 MOL1         0.1053
      72    H34     21.395610   22.791670   23.005999 H          1 MOL1         0.0783
      73    O18     21.234560   24.769911   23.617312 O.3        1 MOL1        -0.5519
      74    H35     21.818160   24.642587   24.397347 H          1 MOL1         0.3769
      75    C22     20.965691   24.046809   21.297177 C.3        1 MOL1         0.1018
      76    H36     20.960627   25.129008   21.114869 H          1 MOL1         0.0783
      77    C23     21.657899   23.307844   20.101512 C.3        1 MOL1         0.1043
      78    H37     21.367179   22.249503   20.135185 H          1 MOL1         0.0783
      79    O19     23.101026   23.406045   20.204165 O.3        1 MOL1        -0.3740
      80    C24     21.303570   23.856956   18.694235 C.3        1 MOL1         0.0138
      81    H38     20.324204   23.478479   18.384541 H          1 MOL1         0.0794
      82    H39     22.030391   23.454848   17.975554 H          1 MOL1         0.0794
      83    O20     21.312072   25.289438   18.647962 O.3        1 MOL1        -0.5486
      84    H40     21.162358   25.557788   17.715133 H          1 MOL1         0.3769
      85    C25     24.440611   17.695781   22.364246 C.3        1 MOL1         0.2972
      86    H41     24.986983   16.779644   22.619369 H          1 MOL1         0.0751
      87    O21     23.152121   17.393935   21.790149 O.3        1 MOL1        -0.3740
      88    C26     24.254856   18.563516   23.635365 C.3        1 MOL1         0.1003
      89    H42     25.261798   18.842185   23.972346 H          1 MOL1         0.0783
      90    O22     23.610882   17.846222   24.704313 O.3        1 MOL1        -0.5519
      91    H43     22.865609   17.294655   24.348828 H          1 MOL1         0.3769
      92    C27     23.508343   19.877628   23.308459 C.3        1 MOL1         0.1053
      93    H44     22.489859   19.636483   22.987633 H          1 MOL1         0.0783
      94    O23     23.466422   20.698777   24.479431 O.3        1 MOL1        -0.5519
      95    H45     23.190260   20.089261   25.200491 H          1 MOL1         0.3769
      96    C28     24.195577   20.638732   22.150727 C.3        1 MOL1         0.1018
      97    H46     25.096303   21.131489   22.540695 H          1 MOL1         0.0783
      98    C29     24.562353   19.711098   20.958202 C.3        1 MOL1         0.1043
      99    H47     23.625902   19.464914   20.450199 H          1 MOL1         0.0783
     100    O24     25.188607   18.479967   21.407250 O.3        1 MOL1        -0.3740
     101    C30     25.488031   20.382931   19.915591 C.3        1 MOL1         0.0138
     102    H48     24.913556   21.154097   19.384541 H          1 MOL1         0.0794
     103    H49     25.787440   19.631583   19.172709 H          1 MOL1         0.0794
     104    O25     26.644808   20.970840   20.523237 O.3        1 MOL1        -0.5486
     105    H50     27.220832   21.308566   19.802966 H          1 MOL1         0.3769
     106    C31     21.118092   14.282269   19.941412 C.3        1 MOL1         0.2972
     107    H51     20.755867   13.459840   19.311314 H          1 MOL1         0.0751
     108    O26     20.055442   14.869593   20.713504 O.3        1 MOL1        -0.3740
     109    C32     22.248757   13.815555   20.893584 C.3        1 MOL1         0.1003
     110    H52     23.081836   13.483999   20.260216 H          1 MOL1         0.0783
     111    O27     21.829204   12.714671   21.714333 O.3        1 MOL1        -0.5519
     112    H53     21.068477   13.032198   22.263338 H          1 MOL1         0.3769
     113    C33     22.760908   14.990848   21.766645 C.3        1 MOL1         0.1053
     114    H54     21.963621   15.266014   22.469361 H          1 MOL1         0.0783
     115    O28     23.919150   14.550243   22.483033 O.3        1 MOL1        -0.5519
     116    H55     23.633375   13.744025   22.965282 H          1 MOL1         0.3769
     117    C34     23.103880   16.246024   20.912820 C.3        1 MOL1         0.1018
     118    H56     24.070407   16.076072   20.421804 H          1 MOL1         0.0783
     119    C35     22.026113   16.549701   19.830155 C.3        1 MOL1         0.1043
     120    H57     21.136417   16.945597   20.338147 H          1 MOL1         0.0783
     121    O29     21.676910   15.331923   19.124369 O.3        1 MOL1        -0.3740
     122    C36     22.441917   17.610899   18.779961 C.3        1 MOL1         0.0138
     123    H58     22.205130   18.604794   19.178607 H          1 MOL1         0.0794
     124    H59     21.819092   17.479098   17.885103 H          1 MOL1         0.0794
     125    O30     23.829265   17.539854   18.424738 O.3        1 MOL1        -0.5486
     126    H60     24.352952   17.700786   19.240185 H          1 MOL1         0.3769
     127    C1      20.159329   16.166317   24.959524 C.2        1 MOL1         0.6173
     128    O1      19.448884   15.346030   25.511565 O.co2      1 MOL1        -0.6755
     129    O2      21.348970   15.993663   24.770632 O.co2      1 MOL1        -0.6755
     130    C2      19.489301   17.338863   24.338197 C.2        1 MOL1        -0.1504
     131    H1      18.430541   17.465175   24.551600 H          1 MOL1         0.0814
     132    C3      20.138829   18.193029   23.519968 C.2        1 MOL1        -0.1394
     133    H2      21.184418   18.024107   23.291707 H          1 MOL1         0.0817
     134    C4      19.522154   19.396015   22.846885 C.3        1 MOL1        -0.1849
     135    H3      18.496946   19.175721   22.526726 H          1 MOL1         0.0736
     136    H4      20.091581   19.613145   21.934035 H          1 MOL1         0.0736
     137    C5      19.547712   20.643413   23.756327 C.3        1 MOL1        -0.1866
     138    H5      20.543384   20.757085   24.205739 H          1 MOL1         0.0738
     139    H6      19.384006   21.535738   23.144670 H          1 MOL1         0.0738
     140    C6      18.475960   20.600421   24.864641 C.3        1 MOL1        -0.2879
     141    H7      18.658499   19.771144   25.559072 H          1 MOL1         0.0750
     142    H8      18.484527   21.532238   25.444102 H          1 MOL1         0.0750
     143    H9      17.473816   20.476048   24.436473 H          1 MOL1         0.0750
@<TRIPOS>BOND
    1     1     2    1
    2     1     3    1
    3     1     4    1
    4     4     5    1
    5     4     6    1
    6     6     7    1
    7     4     8    1
    8     8     9    1
    9     8    10    1
   10    10    11    1
   11     8    12    1
   12    12    13    1
   13    12    14    1
   14    14    15    1
   15     1    16    1
   16    14    16    1
   17    14    17    1
   18    17    18    1
   19    17    19    1
   20    17    20    1
   21    20    21    1
   22    22    23    1
   23    22    24    1
   24    22    25    1
   25    25    26    1
   26    25    27    1
   27    27    28    1
   28    25    29    1
   29    29    30    1
   30    29    31    1
   31    31    32    1
   32     3    33    1
   33    29    33    1
   34    33    34    1
   35    33    35    1
   36    35    36    1
   37    22    37    1
   38    35    37    1
   39    35    38    1
   40    38    39    1
   41    38    40    1
   42    38    41    1
   43    41    42    1
   44    43    44    1
   45    43    45    1
   46    43    46    1
   47    46    47    1
   48    46    48    1
   49    48    49    1
   50    46    50    1
   51    50    51    1
   52    50    52    1
   53    52    53    1
   54    24    54    1
   55    50    54    1
   56    54    55    1
   57    54    56    1
   58    56    57    1
   59    43    58    1
   60    56    58    1
   61    56    59    1
   62    59    60    1
   63    59    61    1
   64    59    62    1
   65    62    63    1
   66    64    65    1
   67    64    66    1
   68    64    67    1
   69    67    68    1
   70    67    69    1
   71    69    70    1
   72    67    71    1
   73    71    72    1
   74    71    73    1
   75    73    74    1
   76    45    75    1
   77    71    75    1
   78    75    76    1
   79    75    77    1
   80    77    78    1
   81    64    79    1
   82    77    79    1
   83    77    80    1
   84    80    81    1
   85    80    82    1
   86    80    83    1
   87    83    84    1
   88    85    86    1
   89    85    87    1
   90    85    88    1
   91    88    89    1
   92    88    90    1
   93    90    91    1
   94    88    92    1
   95    92    93    1
   96    92    94    1
   97    94    95    1
   98    66    96    1
   99    92    96    1
  100    96    97    1
  101    96    98    1
  102    98    99    1
  103    85   100    1
  104    98   100    1
  105    98   101    1
  106   101   102    1
  107   101   103    1
  108   101   104    1
  109   104   105    1
  110   106   107    1
  111    12   108    1
  112   106   108    1
  113   106   109    1
  114   109   110    1
  115   109   111    1
  116   111   112    1
  117   109   113    1
  118   113   114    1
  119   113   115    1
  120   115   116    1
  121    87   117    1
  122   113   117    1
  123   117   118    1
  124   117   119    1
  125   119   120    1
  126   106   121    1
  127   119   121    1
  128   119   122    1
  129   122   123    1
  130   122   124    1
  131   122   125    1
  132   125   126    1
  133   127   128    1
  134   127   129    2
  135   127   130    1
  136   130   131    1
  137   130   132    2
  138   132   133    1
  139   132   134    1
  140   134   135    1
  141   134   136    1
  142   134   137    1
  143   137   138    1
  144   137   139    1
  145   137   140    1
  146   140   141    1
  147   140   142    1
  148   140   143    1
@<TRIPOS>SUBSTRUCTURE
       1 MOL1            1 RESIDUE      1      MOL     
       2 MOL1          143 RESIDUE      1      MOL     
@<SCITEGIC>MOL_PROPERTY
feprocess Rank
SciTegic.value.IntegerValue
149

@<SCITEGIC>MOL_PROPERTY
Conf_Id
SciTegic.value.IntegerValue
340

@<SCITEGIC>MOL_PROPERTY
Probability
SciTegic.value.DoubleValue
0.00

@<SCITEGIC>MOL_PROPERTY
G
SciTegic.value.DoubleValue
503.612

@<SCITEGIC>MOL_PROPERTY
E
SciTegic.value.DoubleValue
320.561

@<SCITEGIC>MOL_PROPERTY
-TS
SciTegic.value.DoubleValue
183.050

@<SCITEGIC>MOL_PROPERTY
U+W
SciTegic.value.DoubleValue
194.473

@<SCITEGIC>MOL_PROPERTY
U
SciTegic.value.DoubleValue
268.832

@<SCITEGIC>MOL_PROPERTY
W
SciTegic.value.DoubleValue
-74.359

@<SCITEGIC>MOL_PROPERTY
W(PB)
SciTegic.value.DoubleValue
-80.336

@<SCITEGIC>MOL_PROPERTY
W(SA)
SciTegic.value.DoubleValue
5.976

@<SCITEGIC>MOL_PROPERTY
Valence
SciTegic.value.DoubleValue
149.037

@<SCITEGIC>MOL_PROPERTY
Coulomb
SciTegic.value.DoubleValue
142.833

@<SCITEGIC>MOL_PROPERTY
VdW
SciTegic.value.DoubleValue
-23.038

@<SCITEGIC>MOL_PROPERTY
VdW6
SciTegic.value.DoubleValue
-180.446

@<SCITEGIC>MOL_PROPERTY
VdW12
SciTegic.value.DoubleValue
157.408

@<SCITEGIC>MOL_PROPERTY
Bond
SciTegic.value.DoubleValue
5.166

@<SCITEGIC>MOL_PROPERTY
Angle
SciTegic.value.DoubleValue
16.454

@<SCITEGIC>MOL_PROPERTY
Pdih
SciTegic.value.DoubleValue
127.368

@<SCITEGIC>MOL_PROPERTY
Idih
SciTegic.value.DoubleValue
0.050

@<SCITEGIC>MOL_PROPERTY
Tether
SciTegic.value.DoubleValue
0.000

@<TRIPOS>MOLECULE
CD_guest-s19_fast_vm2_rndm.mol2 : feprocess host+ligand conformer 150
         143         148           2
SMALL
USER_CHARGES
 
@<TRIPOS>ATOM
       1    C1      16.320316   15.361988   20.060561 C.3        1 MOL1         0.2972
       2    H1      15.389576   15.261228   19.488901 H          1 MOL1         0.0751
       3    O1      16.458206   16.684875   20.619854 O.3        1 MOL1        -0.3740
       4    C2      16.411318   14.292047   21.178054 C.3        1 MOL1         0.1003
       5    H2      16.438485   13.311773   20.685174 H          1 MOL1         0.0783
       6    O2      15.256860   14.341457   22.029408 O.3        1 MOL1        -0.5519
       7    H3      15.330276   15.168867   22.566777 H          1 MOL1         0.3769
       8    C3      17.737723   14.457867   21.967549 C.3        1 MOL1         0.1053
       9    H4      17.702931   15.424093   22.489106 H          1 MOL1         0.0783
      10    O3      17.887903   13.399082   22.919012 O.3        1 MOL1        -0.5519
      11    H5      18.247905   13.840451   23.733023 H          1 MOL1         0.3769
      12    C4      18.965637   14.463701   21.014206 C.3        1 MOL1         0.1018
      13    H6      19.111268   13.436173   20.656380 H          1 MOL1         0.0783
      14    C5      18.755701   15.398777   19.780954 C.3        1 MOL1         0.1043
      15    H7      18.807748   16.440166   20.125519 H          1 MOL1         0.0783
      16    O4      17.452077   15.147437   19.196654 O.3        1 MOL1        -0.3740
      17    C6      19.786395   15.241034   18.632242 C.3        1 MOL1         0.0138
      18    H8      20.612647   15.940514   18.793860 H          1 MOL1         0.0794
      19    H9      19.307081   15.551176   17.693967 H          1 MOL1         0.0794
      20    O5      20.287629   13.905898   18.496913 O.3        1 MOL1        -0.5486
      21    H10     20.896174   13.745386   19.256294 H          1 MOL1         0.3769
      22    C7      14.754668   20.229441   21.694835 C.3        1 MOL1         0.2972
      23    H11     14.131954   21.094027   21.959327 H          1 MOL1         0.0751
      24    O6      16.142849   20.593216   21.564333 O.3        1 MOL1        -0.3740
      25    C8      14.631366   19.140549   22.784233 C.3        1 MOL1         0.1003
      26    H12     13.582843   18.816626   22.810219 H          1 MOL1         0.0783
      27    O7      14.996157   19.666855   24.070594 O.3        1 MOL1        -0.5519
      28    H13     15.448868   20.530694   23.910792 H          1 MOL1         0.3769
      29    C9      15.502436   17.913854   22.432102 C.3        1 MOL1         0.1053
      30    H14     16.552813   18.215108   22.506794 H          1 MOL1         0.0783
      31    O8      15.233942   16.870191   23.371853 O.3        1 MOL1        -0.5519
      32    H15     15.361385   17.283013   24.255228 H          1 MOL1         0.3769
      33    C10     15.265402   17.408915   20.984225 C.3        1 MOL1         0.1018
      34    H16     14.370762   16.773723   20.970774 H          1 MOL1         0.0783
      35    C11     15.135799   18.559675   19.942287 C.3        1 MOL1         0.1043
      36    H17     16.147910   18.935165   19.746775 H          1 MOL1         0.0783
      37    O9      14.325060   19.652710   20.445355 O.3        1 MOL1        -0.3740
      38    C12     14.553927   18.104356   18.582117 C.3        1 MOL1         0.0138
      39    H18     15.255182   17.399602   18.115151 H          1 MOL1         0.0794
      40    H19     14.490812   18.979947   17.922233 H          1 MOL1         0.0794
      41    O10     13.260594   17.499264   18.711965 O.3        1 MOL1        -0.5486
      42    H20     13.361825   16.650216   19.189624 H          1 MOL1         0.3769
      43    C13     18.500645   24.048582   21.447673 C.3        1 MOL1         0.2972
      44    H21     18.834791   25.084084   21.304751 H          1 MOL1         0.0751
      45    O11     19.593022   23.188460   21.826450 O.3        1 MOL1        -0.3740
      46    C14     17.449597   23.993324   22.585653 C.3        1 MOL1         0.1003
      47    H22     16.619464   24.654215   22.304327 H          1 MOL1         0.0783
      48    O12     18.028615   24.452845   23.817516 O.3        1 MOL1        -0.5519
      49    H23     18.982158   24.191998   23.797505 H          1 MOL1         0.3769
      50    C15     16.887012   22.561713   22.755191 C.3        1 MOL1         0.1053
      51    H24     17.698579   21.923917   23.124371 H          1 MOL1         0.0783
      52    O13     15.812245   22.574660   23.699963 O.3        1 MOL1        -0.5519
      53    H25     16.137340   23.125471   24.447054 H          1 MOL1         0.3769
      54    C16     16.403900   21.997725   21.396963 C.3        1 MOL1         0.1018
      55    H26     15.506075   22.546205   21.082350 H          1 MOL1         0.0783
      56    C17     17.490750   22.141618   20.300282 C.3        1 MOL1         0.1043
      57    H27     18.347158   21.514425   20.581859 H          1 MOL1         0.0783
      58    O14     17.908495   23.528852   20.235265 O.3        1 MOL1        -0.3740
      59    C18     17.036351   21.684385   18.888889 C.3        1 MOL1         0.0138
      60    H28     17.260240   20.615309   18.783738 H          1 MOL1         0.0794
      61    H29     17.639731   22.210175   18.137024 H          1 MOL1         0.0794
      62    O15     15.641866   21.906599   18.642498 O.3        1 MOL1        -0.5486
      63    H30     15.139799   21.278189   19.211369 H          1 MOL1         0.3769
      64    C19     23.744772   22.846414   21.430192 C.3        1 MOL1         0.2972
      65    H31     24.802745   23.057581   21.228970 H          1 MOL1         0.0751
      66    O16     23.553458   21.479470   21.843464 O.3        1 MOL1        -0.3740
      67    C20     23.241938   23.754166   22.580589 C.3        1 MOL1         0.1003
      68    H32     23.396076   24.797235   22.275196 H          1 MOL1         0.0783
      69    O17     23.990122   23.489859   23.777599 O.3        1 MOL1        -0.5519
      70    H33     24.180542   22.521282   23.775794 H          1 MOL1         0.3769
      71    C21     21.729928   23.545025   22.834561 C.3        1 MOL1         0.1053
      72    H34     21.591824   22.531842   23.231782 H          1 MOL1         0.0783
      73    O18     21.262568   24.507350   23.786383 O.3        1 MOL1        -0.5519
      74    H35     21.918794   24.483329   24.517557 H          1 MOL1         0.3769
      75    C22     20.918675   23.664704   21.522506 C.3        1 MOL1         0.1018
      76    H36     20.919044   24.717869   21.212363 H          1 MOL1         0.0783
      77    C23     21.527051   22.786931   20.393032 C.3        1 MOL1         0.1043
      78    H37     21.412411   21.734204   20.683771 H          1 MOL1         0.0783
      79    O19     22.938084   23.096684   20.258529 O.3        1 MOL1        -0.3740
      80    C24     20.863693   22.951416   19.000819 C.3        1 MOL1         0.0138
      81    H38     20.015252   22.259385   18.935393 H          1 MOL1         0.0794
      82    H39     21.583181   22.644590   18.230402 H          1 MOL1         0.0794
      83    O20     20.415758   24.285507   18.740123 O.3        1 MOL1        -0.5486
      84    H40     19.506234   24.351792   19.111100 H          1 MOL1         0.3769
      85    C25     24.977990   17.611036   21.214099 C.3        1 MOL1         0.2972
      86    H41     25.567519   16.731961   20.923545 H          1 MOL1         0.0751
      87    O21     23.679261   17.242491   21.716695 O.3        1 MOL1        -0.3740
      88    C26     25.703134   18.415769   22.321086 C.3        1 MOL1         0.1003
      89    H42     26.685690   18.707580   21.928200 H          1 MOL1         0.0783
      90    O22     25.878747   17.610578   23.498980 O.3        1 MOL1        -0.5519
      91    H43     25.005566   17.185529   23.695675 H          1 MOL1         0.3769
      92    C27     24.920814   19.706158   22.668595 C.3        1 MOL1         0.1053
      93    H44     23.995027   19.402977   23.171691 H          1 MOL1         0.0783
      94    O23     25.704354   20.516323   23.551624 O.3        1 MOL1        -0.5519
      95    H45     26.026221   19.901839   24.247537 H          1 MOL1         0.3769
      96    C28     24.538179   20.520644   21.404509 C.3        1 MOL1         0.1018
      97    H46     25.445451   21.007488   21.023741 H          1 MOL1         0.0783
      98    C29     23.920023   19.617395   20.296179 C.3        1 MOL1         0.1043
      99    H47     22.939813   19.266589   20.644586 H          1 MOL1         0.0783
     100    O24     24.789162   18.480883   20.080049 O.3        1 MOL1        -0.3740
     101    C30     23.693560   20.291889   18.919474 C.3        1 MOL1         0.0138
     102    H48     22.687876   20.726012   18.905865 H          1 MOL1         0.0794
     103    H49     23.707789   19.513814   18.144571 H          1 MOL1         0.0794
     104    O25     24.661169   21.301240   18.613500 O.3        1 MOL1        -0.5486
     105    H50     24.335346   22.132774   19.028177 H          1 MOL1         0.3769
     106    C31     21.157006   13.950396   21.971761 C.3        1 MOL1         0.2972
     107    H51     20.740343   12.938254   22.054276 H          1 MOL1         0.0751
     108    O26     20.104366   14.924268   21.786492 O.3        1 MOL1        -0.3740
     109    C32     21.995370   14.265028   23.240402 C.3        1 MOL1         0.1003
     110    H52     22.833944   13.556425   23.240172 H          1 MOL1         0.0783
     111    O27     21.258698   14.068838   24.455444 O.3        1 MOL1        -0.5519
     112    H53     20.409734   14.586504   24.408840 H          1 MOL1         0.3769
     113    C33     22.603317   15.682022   23.166712 C.3        1 MOL1         0.1053
     114    H54     21.784777   16.414366   23.153400 H          1 MOL1         0.0783
     115    O28     23.449730   15.905615   24.300630 O.3        1 MOL1        -0.5519
     116    H55     22.930650   15.580031   25.069666 H          1 MOL1         0.3769
     117    C34     23.431442   15.832962   21.870676 C.3        1 MOL1         0.1018
     118    H56     24.363196   15.263414   21.987552 H          1 MOL1         0.0783
     119    C35     22.656737   15.344229   20.614818 C.3        1 MOL1         0.1043
     120    H57     21.866212   16.080145   20.430553 H          1 MOL1         0.0783
     121    O29     22.052397   14.041021   20.842107 O.3        1 MOL1        -0.3740
     122    C36     23.527913   15.252413   19.337812 C.3        1 MOL1         0.0138
     123    H58     23.761868   16.269498   18.997073 H          1 MOL1         0.0794
     124    H59     22.941322   14.773544   18.542704 H          1 MOL1         0.0794
     125    O30     24.740119   14.523328   19.565908 O.3        1 MOL1        -0.5486
     126    H60     25.202261   14.436348   18.703831 H          1 MOL1         0.3769
     127    C1      18.097168   16.051488   25.416901 C.2        1 MOL1         0.6173
     128    O1      18.774164   15.199527   24.870342 O.co2      1 MOL1        -0.6755
     129    O2      17.365408   15.817641   26.358999 O.co2      1 MOL1        -0.6755
     130    C2      18.140595   17.450690   24.915711 C.2        1 MOL1        -0.1504
     131    H1      17.514423   18.163614   25.446879 H          1 MOL1         0.0814
     132    C3      18.891044   17.855410   23.866452 C.2        1 MOL1        -0.1394
     133    H2      19.519478   17.153372   23.321201 H          1 MOL1         0.0817
     134    C4      18.910565   19.283331   23.367121 C.3        1 MOL1        -0.1849
     135    H3      17.920158   19.728765   23.516215 H          1 MOL1         0.0736
     136    H4      19.101199   19.304124   22.286151 H          1 MOL1         0.0736
     137    C5      19.954740   20.146397   24.102366 C.3        1 MOL1        -0.1866
     138    H5      19.831744   21.193354   23.799340 H          1 MOL1         0.0738
     139    H6      19.770495   20.109276   25.184662 H          1 MOL1         0.0738
     140    C6      21.397666   19.696412   23.803889 C.3        1 MOL1        -0.2879
     141    H7      21.595754   19.716474   22.725276 H          1 MOL1         0.0750
     142    H8      22.117573   20.360966   24.297947 H          1 MOL1         0.0750
     143    H9      21.577294   18.676232   24.166438 H          1 MOL1         0.0750
@<TRIPOS>BOND
    1     1     2    1
    2     1     3    1
    3     1     4    1
    4     4     5    1
    5     4     6    1
    6     6     7    1
    7     4     8    1
    8     8     9    1
    9     8    10    1
   10    10    11    1
   11     8    12    1
   12    12    13    1
   13    12    14    1
   14    14    15    1
   15     1    16    1
   16    14    16    1
   17    14    17    1
   18    17    18    1
   19    17    19    1
   20    17    20    1
   21    20    21    1
   22    22    23    1
   23    22    24    1
   24    22    25    1
   25    25    26    1
   26    25    27    1
   27    27    28    1
   28    25    29    1
   29    29    30    1
   30    29    31    1
   31    31    32    1
   32     3    33    1
   33    29    33    1
   34    33    34    1
   35    33    35    1
   36    35    36    1
   37    22    37    1
   38    35    37    1
   39    35    38    1
   40    38    39    1
   41    38    40    1
   42    38    41    1
   43    41    42    1
   44    43    44    1
   45    43    45    1
   46    43    46    1
   47    46    47    1
   48    46    48    1
   49    48    49    1
   50    46    50    1
   51    50    51    1
   52    50    52    1
   53    52    53    1
   54    24    54    1
   55    50    54    1
   56    54    55    1
   57    54    56    1
   58    56    57    1
   59    43    58    1
   60    56    58    1
   61    56    59    1
   62    59    60    1
   63    59    61    1
   64    59    62    1
   65    62    63    1
   66    64    65    1
   67    64    66    1
   68    64    67    1
   69    67    68    1
   70    67    69    1
   71    69    70    1
   72    67    71    1
   73    71    72    1
   74    71    73    1
   75    73    74    1
   76    45    75    1
   77    71    75    1
   78    75    76    1
   79    75    77    1
   80    77    78    1
   81    64    79    1
   82    77    79    1
   83    77    80    1
   84    80    81    1
   85    80    82    1
   86    80    83    1
   87    83    84    1
   88    85    86    1
   89    85    87    1
   90    85    88    1
   91    88    89    1
   92    88    90    1
   93    90    91    1
   94    88    92    1
   95    92    93    1
   96    92    94    1
   97    94    95    1
   98    66    96    1
   99    92    96    1
  100    96    97    1
  101    96    98    1
  102    98    99    1
  103    85   100    1
  104    98   100    1
  105    98   101    1
  106   101   102    1
  107   101   103    1
  108   101   104    1
  109   104   105    1
  110   106   107    1
  111    12   108    1
  112   106   108    1
  113   106   109    1
  114   109   110    1
  115   109   111    1
  116   111   112    1
  117   109   113    1
  118   113   114    1
  119   113   115    1
  120   115   116    1
  121    87   117    1
  122   113   117    1
  123   117   118    1
  124   117   119    1
  125   119   120    1
  126   106   121    1
  127   119   121    1
  128   119   122    1
  129   122   123    1
  130   122   124    1
  131   122   125    1
  132   125   126    1
  133   127   128    1
  134   127   129    2
  135   127   130    1
  136   130   131    1
  137   130   132    2
  138   132   133    1
  139   132   134    1
  140   134   135    1
  141   134   136    1
  142   134   137    1
  143   137   138    1
  144   137   139    1
  145   137   140    1
  146   140   141    1
  147   140   142    1
  148   140   143    1
@<TRIPOS>SUBSTRUCTURE
       1 MOL1            1 RESIDUE      1      MOL     
       2 MOL1          143 RESIDUE      1      MOL     
@<SCITEGIC>MOL_PROPERTY
feprocess Rank
SciTegic.value.IntegerValue
150

@<SCITEGIC>MOL_PROPERTY
Conf_Id
SciTegic.value.IntegerValue
127

@<SCITEGIC>MOL_PROPERTY
Probability
SciTegic.value.DoubleValue
0.00

@<SCITEGIC>MOL_PROPERTY
G
SciTegic.value.DoubleValue
503.641

@<SCITEGIC>MOL_PROPERTY
E
SciTegic.value.DoubleValue
321.536

@<SCITEGIC>MOL_PROPERTY
-TS
SciTegic.value.DoubleValue
182.105

@<SCITEGIC>MOL_PROPERTY
U+W
SciTegic.value.DoubleValue
195.448

@<SCITEGIC>MOL_PROPERTY
U
SciTegic.value.DoubleValue
275.642

@<SCITEGIC>MOL_PROPERTY
W
SciTegic.value.DoubleValue
-80.194

@<SCITEGIC>MOL_PROPERTY
W(PB)
SciTegic.value.DoubleValue
-86.248

@<SCITEGIC>MOL_PROPERTY
W(SA)
SciTegic.value.DoubleValue
6.054

@<SCITEGIC>MOL_PROPERTY
Valence
SciTegic.value.DoubleValue
152.113

@<SCITEGIC>MOL_PROPERTY
Coulomb
SciTegic.value.DoubleValue
145.772

@<SCITEGIC>MOL_PROPERTY
VdW
SciTegic.value.DoubleValue
-22.243

@<SCITEGIC>MOL_PROPERTY
VdW6
SciTegic.value.DoubleValue
-177.600

@<SCITEGIC>MOL_PROPERTY
VdW12
SciTegic.value.DoubleValue
155.357

@<SCITEGIC>MOL_PROPERTY
Bond
SciTegic.value.DoubleValue
5.002

@<SCITEGIC>MOL_PROPERTY
Angle
SciTegic.value.DoubleValue
14.920

@<SCITEGIC>MOL_PROPERTY
Pdih
SciTegic.value.DoubleValue
132.190

@<SCITEGIC>MOL_PROPERTY
Idih
SciTegic.value.DoubleValue
0.001

@<SCITEGIC>MOL_PROPERTY
Tether
SciTegic.value.DoubleValue
0.000

@<TRIPOS>MOLECULE
CD_guest-s19_fast_vm2_rndm.mol2 : feprocess host+ligand conformer 151
         143         148           2
SMALL
USER_CHARGES
 
@<TRIPOS>ATOM
       1    C1      16.202793   15.322947   20.606766 C.3        1 MOL1         0.2972
       2    H1      15.185259   15.217981   20.208801 H          1 MOL1         0.0751
       3    O1      16.380837   16.566927   21.305396 O.3        1 MOL1        -0.3740
       4    C2      16.518414   14.192528   21.618382 C.3        1 MOL1         0.1003
       5    H2      16.396414   13.235016   21.095680 H          1 MOL1         0.0783
       6    O2      15.614014   14.248274   22.734571 O.3        1 MOL1        -0.5519
       7    H3      15.561758   15.195774   23.017836 H          1 MOL1         0.3769
       8    C3      17.983604   14.290395   22.113164 C.3        1 MOL1         0.1053
       9    H4      18.077233   15.196613   22.727970 H          1 MOL1         0.0783
      10    O3      18.301706   13.137228   22.900606 O.3        1 MOL1        -0.5519
      11    H5      17.545448   13.031678   23.519434 H          1 MOL1         0.3769
      12    C4      18.975304   14.411396   20.929442 C.3        1 MOL1         0.1018
      13    H6      19.012934   13.445037   20.409669 H          1 MOL1         0.0783
      14    C5      18.542689   15.518877   19.927744 C.3        1 MOL1         0.1043
      15    H7      18.607527   16.489484   20.434992 H          1 MOL1         0.0783
      16    O4      17.171825   15.262899   19.539379 O.3        1 MOL1        -0.3740
      17    C6      19.392729   15.631027   18.637014 C.3        1 MOL1         0.0138
      18    H8      20.233234   16.308759   18.830965 H          1 MOL1         0.0794
      19    H9      18.781977   16.112539   17.861604 H          1 MOL1         0.0794
      20    O5      19.881900   14.368157   18.169864 O.3        1 MOL1        -0.5486
      21    H10     20.706805   14.185342   18.676189 H          1 MOL1         0.3769
      22    C7      14.656768   20.294659   21.713582 C.3        1 MOL1         0.2972
      23    H11     13.980682   21.155845   21.790785 H          1 MOL1         0.0751
      24    O6      16.037095   20.694259   21.781233 O.3        1 MOL1        -0.3740
      25    C8      14.391435   19.316840   22.882624 C.3        1 MOL1         0.1003
      26    H12     13.351338   18.974956   22.802641 H          1 MOL1         0.0783
      27    O7      14.580153   19.983426   24.141246 O.3        1 MOL1        -0.5519
      28    H13     15.226081   20.714895   23.981583 H          1 MOL1         0.3769
      29    C9      15.313601   18.080729   22.780221 C.3        1 MOL1         0.1053
      30    H14     16.347457   18.409558   22.955837 H          1 MOL1         0.0783
      31    O8      14.938169   17.115859   23.770296 O.3        1 MOL1        -0.5519
      32    H15     14.854766   17.628186   24.605054 H          1 MOL1         0.3769
      33    C10     15.241122   17.437852   21.374878 C.3        1 MOL1         0.1018
      34    H16     14.295480   16.885565   21.293931 H          1 MOL1         0.0783
      35    C11     15.356886   18.481490   20.226540 C.3        1 MOL1         0.1043
      36    H17     16.391706   18.846010   20.209938 H          1 MOL1         0.0783
      37    O9      14.455781   19.593480   20.469723 O.3        1 MOL1        -0.3740
      38    C12     15.052822   17.915814   18.819034 C.3        1 MOL1         0.0138
      39    H18     15.894953   17.284250   18.506817 H          1 MOL1         0.0794
      40    H19     15.000431   18.752830   18.109988 H          1 MOL1         0.0794
      41    O10     13.834194   17.161529   18.790932 O.3        1 MOL1        -0.5486
      42    H20     13.674177   16.890274   17.860911 H          1 MOL1         0.3769
      43    C13     18.469721   24.023891   21.191758 C.3        1 MOL1         0.2972
      44    H21     18.845424   25.028379   20.958357 H          1 MOL1         0.0751
      45    O11     19.538054   23.123925   21.538727 O.3        1 MOL1        -0.3740
      46    C14     17.510713   24.094736   22.405062 C.3        1 MOL1         0.1003
      47    H22     16.681861   24.762843   22.137322 H          1 MOL1         0.0783
      48    O12     18.196634   24.621320   23.552268 O.3        1 MOL1        -0.5519
      49    H23     19.151397   24.387039   23.444215 H          1 MOL1         0.3769
      50    C15     16.922653   22.699596   22.718097 C.3        1 MOL1         0.1053
      51    H24     17.740361   22.052677   23.063641 H          1 MOL1         0.0783
      52    O13     15.928238   22.813077   23.741955 O.3        1 MOL1        -0.5519
      53    H25     16.335814   23.385636   24.429456 H          1 MOL1         0.3769
      54    C16     16.307616   22.065620   21.448234 C.3        1 MOL1         0.1018
      55    H26     15.395223   22.618262   21.188076 H          1 MOL1         0.0783
      56    C17     17.290740   22.103406   20.244637 C.3        1 MOL1         0.1043
      57    H27     18.142066   21.453726   20.479822 H          1 MOL1         0.0783
      58    O14     17.759453   23.464747   20.064862 O.3        1 MOL1        -0.3740
      59    C18     16.704573   21.604865   18.898422 C.3        1 MOL1         0.0138
      60    H28     16.860797   20.521312   18.829012 H          1 MOL1         0.0794
      61    H29     17.279112   22.055810   18.078492 H          1 MOL1         0.0794
      62    O15     15.311766   21.901552   18.744297 O.3        1 MOL1        -0.5486
      63    H30     14.818702   21.222330   19.260968 H          1 MOL1         0.3769
      64    C19     23.649096   22.639388   20.971942 C.3        1 MOL1         0.2972
      65    H31     24.693185   22.766279   20.658020 H          1 MOL1         0.0751
      66    O16     23.443579   21.395940   21.662493 O.3        1 MOL1        -0.3740
      67    C20     23.230273   23.759382   21.957545 C.3        1 MOL1         0.1003
      68    H32     23.372764   24.721947   21.449554 H          1 MOL1         0.0783
      69    O17     24.044414   23.715013   23.141640 O.3        1 MOL1        -0.5519
      70    H33     24.105368   22.764641   23.412044 H          1 MOL1         0.3769
      71    C21     21.733191   23.626289   22.335061 C.3        1 MOL1         0.1053
      72    H34     21.609387   22.712601   22.933393 H          1 MOL1         0.0783
      73    O18     21.327264   24.765558   23.102000 O.3        1 MOL1        -0.5519
      74    H35     22.032558   24.885812   23.776003 H          1 MOL1         0.3769
      75    C22     20.846407   23.494803   21.073074 C.3        1 MOL1         0.1018
      76    H36     20.841672   24.459940   20.549685 H          1 MOL1         0.0783
      77    C23     21.373436   22.394959   20.110556 C.3        1 MOL1         0.1043
      78    H37     21.288578   21.421026   20.608813 H          1 MOL1         0.0783
      79    O19     22.765233   22.678053   19.830187 O.3        1 MOL1        -0.3740
      80    C24     20.619419   22.275164   18.761440 C.3        1 MOL1         0.0138
      81    H38     19.774209   21.588527   18.892852 H          1 MOL1         0.0794
      82    H39     21.290094   21.804801   18.030120 H          1 MOL1         0.0794
      83    O20     20.146936   23.532910   18.263744 O.3        1 MOL1        -0.5486
      84    H40     19.310145   23.729976   18.744765 H          1 MOL1         0.3769
      85    C25     25.105126   17.638455   22.092948 C.3        1 MOL1         0.2972
      86    H41     25.774926   16.774372   22.189996 H          1 MOL1         0.0751
      87    O21     23.723457   17.235316   22.085359 O.3        1 MOL1        -0.3740
      88    C26     25.321332   18.597890   23.287751 C.3        1 MOL1         0.1003
      89    H42     26.369682   18.922759   23.267682 H          1 MOL1         0.0783
      90    O22     25.056722   17.917724   24.524688 O.3        1 MOL1        -0.5519
      91    H43     24.360657   17.244375   24.332048 H          1 MOL1         0.3769
      92    C27     24.428874   19.852958   23.157734 C.3        1 MOL1         0.1053
      93    H44     23.383627   19.542489   23.281482 H          1 MOL1         0.0783
      94    O23     24.774725   20.798801   24.176562 O.3        1 MOL1        -0.5519
      95    H45     24.800989   20.276724   25.008702 H          1 MOL1         0.3769
      96    C28     24.570570   20.511743   21.765664 C.3        1 MOL1         0.1018
      97    H46     25.524751   21.053882   21.731043 H          1 MOL1         0.0783
      98    C29     24.489053   19.480716   20.604309 C.3        1 MOL1         0.1043
      99    H47     23.450261   19.129269   20.547024 H          1 MOL1         0.0783
     100    O24     25.369542   18.357889   20.871994 O.3        1 MOL1        -0.3740
     101    C30     24.859771   20.053004   19.215126 C.3        1 MOL1         0.0138
     102    H48     24.035977   20.688590   18.866234 H          1 MOL1         0.0794
     103    H49     24.942605   19.219660   18.504692 H          1 MOL1         0.0794
     104    O25     26.081199   20.802678   19.246702 O.3        1 MOL1        -0.5486
     105    H50     26.282102   21.081974   18.327124 H          1 MOL1         0.3769
     106    C31     21.352890   13.915021   21.167321 C.3        1 MOL1         0.2972
     107    H51     21.016237   12.919506   20.850901 H          1 MOL1         0.0751
     108    O26     20.242718   14.763686   21.512791 O.3        1 MOL1        -0.3740
     109    C32     22.248639   13.785525   22.423091 C.3        1 MOL1         0.1003
     110    H52     23.100254   13.143804   22.162369 H          1 MOL1         0.0783
     111    O27     21.508820   13.185338   23.498479 O.3        1 MOL1        -0.5519
     112    H53     20.567989   13.464752   23.382838 H          1 MOL1         0.3769
     113    C33     22.798479   15.166482   22.848037 C.3        1 MOL1         0.1053
     114    H54     21.950647   15.776970   23.185217 H          1 MOL1         0.0783
     115    O28     23.737965   15.002623   23.916057 O.3        1 MOL1        -0.5519
     116    H55     23.296605   14.399259   24.553774 H          1 MOL1         0.3769
     117    C34     23.469867   15.885896   21.653389 C.3        1 MOL1         0.1018
     118    H56     24.395935   15.352088   21.402667 H          1 MOL1         0.0783
     119    C35     22.542738   15.913878   20.405095 C.3        1 MOL1         0.1043
     120    H57     21.672147   16.542164   20.638198 H          1 MOL1         0.0783
     121    O29     22.107869   14.558865   20.119198 O.3        1 MOL1        -0.3740
     122    C36     23.186189   16.485311   19.115069 C.3        1 MOL1         0.0138
     123    H58     23.029997   17.570169   19.096154 H          1 MOL1         0.0794
     124    H59     22.647849   16.080517   18.248019 H          1 MOL1         0.0794
     125    O30     24.584203   16.193416   19.002994 O.3        1 MOL1        -0.5486
     126    H60     25.053378   16.831649   19.589699 H          1 MOL1         0.3769
     127    C1      19.745226   18.977536   19.964300 C.2        1 MOL1         0.6173
     128    O1      20.921050   18.941650   19.650413 O.co2      1 MOL1        -0.6755
     129    O2      18.832786   18.854746   19.169384 O.co2      1 MOL1        -0.6755
     130    C2      19.370507   19.213223   21.383859 C.2        1 MOL1        -0.1504
     131    H1      18.305562   19.207501   21.597194 H          1 MOL1         0.0814
     132    C3      20.259015   19.443002   22.375422 C.2        1 MOL1        -0.1394
     133    H2      21.328824   19.456845   22.173291 H          1 MOL1         0.0817
     134    C4      19.851127   19.713340   23.808179 C.3        1 MOL1        -0.1849
     135    H3      18.809905   20.060468   23.835945 H          1 MOL1         0.0736
     136    H4      20.457400   20.529707   24.222612 H          1 MOL1         0.0736
     137    C5      19.980623   18.459568   24.699152 C.3        1 MOL1        -0.1866
     138    H5      19.484496   18.647990   25.660811 H          1 MOL1         0.0738
     139    H6      19.451654   17.617870   24.230631 H          1 MOL1         0.0738
     140    C6      21.451130   18.074602   24.960882 C.3        1 MOL1        -0.2879
     141    H7      21.984792   18.884966   25.473930 H          1 MOL1         0.0750
     142    H8      21.512547   17.175485   25.587065 H          1 MOL1         0.0750
     143    H9      21.971117   17.867646   24.020004 H          1 MOL1         0.0750
@<TRIPOS>BOND
    1     1     2    1
    2     1     3    1
    3     1     4    1
    4     4     5    1
    5     4     6    1
    6     6     7    1
    7     4     8    1
    8     8     9    1
    9     8    10    1
   10    10    11    1
   11     8    12    1
   12    12    13    1
   13    12    14    1
   14    14    15    1
   15     1    16    1
   16    14    16    1
   17    14    17    1
   18    17    18    1
   19    17    19    1
   20    17    20    1
   21    20    21    1
   22    22    23    1
   23    22    24    1
   24    22    25    1
   25    25    26    1
   26    25    27    1
   27    27    28    1
   28    25    29    1
   29    29    30    1
   30    29    31    1
   31    31    32    1
   32     3    33    1
   33    29    33    1
   34    33    34    1
   35    33    35    1
   36    35    36    1
   37    22    37    1
   38    35    37    1
   39    35    38    1
   40    38    39    1
   41    38    40    1
   42    38    41    1
   43    41    42    1
   44    43    44    1
   45    43    45    1
   46    43    46    1
   47    46    47    1
   48    46    48    1
   49    48    49    1
   50    46    50    1
   51    50    51    1
   52    50    52    1
   53    52    53    1
   54    24    54    1
   55    50    54    1
   56    54    55    1
   57    54    56    1
   58    56    57    1
   59    43    58    1
   60    56    58    1
   61    56    59    1
   62    59    60    1
   63    59    61    1
   64    59    62    1
   65    62    63    1
   66    64    65    1
   67    64    66    1
   68    64    67    1
   69    67    68    1
   70    67    69    1
   71    69    70    1
   72    67    71    1
   73    71    72    1
   74    71    73    1
   75    73    74    1
   76    45    75    1
   77    71    75    1
   78    75    76    1
   79    75    77    1
   80    77    78    1
   81    64    79    1
   82    77    79    1
   83    77    80    1
   84    80    81    1
   85    80    82    1
   86    80    83    1
   87    83    84    1
   88    85    86    1
   89    85    87    1
   90    85    88    1
   91    88    89    1
   92    88    90    1
   93    90    91    1
   94    88    92    1
   95    92    93    1
   96    92    94    1
   97    94    95    1
   98    66    96    1
   99    92    96    1
  100    96    97    1
  101    96    98    1
  102    98    99    1
  103    85   100    1
  104    98   100    1
  105    98   101    1
  106   101   102    1
  107   101   103    1
  108   101   104    1
  109   104   105    1
  110   106   107    1
  111    12   108    1
  112   106   108    1
  113   106   109    1
  114   109   110    1
  115   109   111    1
  116   111   112    1
  117   109   113    1
  118   113   114    1
  119   113   115    1
  120   115   116    1
  121    87   117    1
  122   113   117    1
  123   117   118    1
  124   117   119    1
  125   119   120    1
  126   106   121    1
  127   119   121    1
  128   119   122    1
  129   122   123    1
  130   122   124    1
  131   122   125    1
  132   125   126    1
  133   127   128    1
  134   127   129    2
  135   127   130    1
  136   130   131    1
  137   130   132    2
  138   132   133    1
  139   132   134    1
  140   134   135    1
  141   134   136    1
  142   134   137    1
  143   137   138    1
  144   137   139    1
  145   137   140    1
  146   140   141    1
  147   140   142    1
  148   140   143    1
@<TRIPOS>SUBSTRUCTURE
       1 MOL1            1 RESIDUE      1      MOL     
       2 MOL1          143 RESIDUE      1      MOL     
@<SCITEGIC>MOL_PROPERTY
feprocess Rank
SciTegic.value.IntegerValue
151

@<SCITEGIC>MOL_PROPERTY
Conf_Id
SciTegic.value.IntegerValue
331

@<SCITEGIC>MOL_PROPERTY
Probability
SciTegic.value.DoubleValue
0.00

@<SCITEGIC>MOL_PROPERTY
G
SciTegic.value.DoubleValue
503.714

@<SCITEGIC>MOL_PROPERTY
E
SciTegic.value.DoubleValue
322.961

@<SCITEGIC>MOL_PROPERTY
-TS
SciTegic.value.DoubleValue
180.754

@<SCITEGIC>MOL_PROPERTY
U+W
SciTegic.value.DoubleValue
196.872

@<SCITEGIC>MOL_PROPERTY
U
SciTegic.value.DoubleValue
263.081

@<SCITEGIC>MOL_PROPERTY
W
SciTegic.value.DoubleValue
-66.209

@<SCITEGIC>MOL_PROPERTY
W(PB)
SciTegic.value.DoubleValue
-72.082

@<SCITEGIC>MOL_PROPERTY
W(SA)
SciTegic.value.DoubleValue
5.873

@<SCITEGIC>MOL_PROPERTY
Valence
SciTegic.value.DoubleValue
150.386

@<SCITEGIC>MOL_PROPERTY
Coulomb
SciTegic.value.DoubleValue
142.158

@<SCITEGIC>MOL_PROPERTY
VdW
SciTegic.value.DoubleValue
-29.463

@<SCITEGIC>MOL_PROPERTY
VdW6
SciTegic.value.DoubleValue
-182.261

@<SCITEGIC>MOL_PROPERTY
VdW12
SciTegic.value.DoubleValue
152.798

@<SCITEGIC>MOL_PROPERTY
Bond
SciTegic.value.DoubleValue
4.247

@<SCITEGIC>MOL_PROPERTY
Angle
SciTegic.value.DoubleValue
12.900

@<SCITEGIC>MOL_PROPERTY
Pdih
SciTegic.value.DoubleValue
133.237

@<SCITEGIC>MOL_PROPERTY
Idih
SciTegic.value.DoubleValue
0.003

@<SCITEGIC>MOL_PROPERTY
Tether
SciTegic.value.DoubleValue
0.000

@<TRIPOS>MOLECULE
CD_guest-s19_fast_vm2_rndm.mol2 : feprocess host+ligand conformer 152
         143         148           2
SMALL
USER_CHARGES
 
@<TRIPOS>ATOM
       1    C1      16.023756   15.194461   20.764881 C.3        1 MOL1         0.2972
       2    H1      15.029162   15.079093   20.316378 H          1 MOL1         0.0751
       3    O1      15.994266   16.159760   21.834705 O.3        1 MOL1        -0.3740
       4    C2      16.497834   13.825933   21.319038 C.3        1 MOL1         0.1003
       5    H2      16.432630   13.106731   20.492222 H          1 MOL1         0.0783
       6    O2      15.636760   13.398290   22.384484 O.3        1 MOL1        -0.5519
       7    H3      15.590411   14.153871   23.013794 H          1 MOL1         0.3769
       8    C3      17.969314   13.850727   21.804691 C.3        1 MOL1         0.1053
       9    H4      18.001569   14.410085   22.745875 H          1 MOL1         0.0783
      10    O3      18.401144   12.502910   22.017946 O.3        1 MOL1        -0.5519
      11    H5      17.771412   12.125001   22.669027 H          1 MOL1         0.3769
      12    C4      18.916396   14.551739   20.797125 C.3        1 MOL1         0.1018
      13    H6      19.059355   13.884818   19.936711 H          1 MOL1         0.0783
      14    C5      18.318966   15.892881   20.290549 C.3        1 MOL1         0.1043
      15    H7      18.270223   16.593789   21.132531 H          1 MOL1         0.0783
      16    O4      16.987535   15.638344   19.787255 O.3        1 MOL1        -0.3740
      17    C6      19.113943   16.584071   19.154991 C.3        1 MOL1         0.0138
      18    H8      19.885250   17.221195   19.601276 H          1 MOL1         0.0794
      19    H9      18.433262   17.252562   18.611903 H          1 MOL1         0.0794
      20    O5      19.708584   15.655000   18.241667 O.3        1 MOL1        -0.5486
      21    H10     20.421923   15.180199   18.728654 H          1 MOL1         0.3769
      22    C7      14.828534   20.173182   21.815985 C.3        1 MOL1         0.2972
      23    H11     14.272069   21.119539   21.833828 H          1 MOL1         0.0751
      24    O6      16.245510   20.407018   21.692167 O.3        1 MOL1        -0.3740
      25    C8      14.536246   19.387763   23.111261 C.3        1 MOL1         0.1003
      26    H12     13.454691   19.202805   23.146832 H          1 MOL1         0.0783
      27    O7      14.922073   20.159720   24.258838 O.3        1 MOL1        -0.5519
      28    H13     15.571606   20.828193   23.938553 H          1 MOL1         0.3769
      29    C9      15.251461   18.020531   23.106558 C.3        1 MOL1         0.1053
      30    H14     16.329548   18.214326   23.170880 H          1 MOL1         0.0783
      31    O8      14.821546   17.280650   24.253715 O.3        1 MOL1        -0.5519
      32    H15     14.911608   17.905195   25.006785 H          1 MOL1         0.3769
      33    C10     14.984255   17.205693   21.810095 C.3        1 MOL1         0.1018
      34    H16     13.980598   16.767597   21.879969 H          1 MOL1         0.0783
      35    C11     15.079112   18.091092   20.516855 C.3        1 MOL1         0.1043
      36    H17     16.140924   18.267057   20.313098 H          1 MOL1         0.0783
      37    O9      14.409675   19.366031   20.703336 O.3        1 MOL1        -0.3740
      38    C12     14.429684   17.491363   19.238992 C.3        1 MOL1         0.0138
      39    H18     15.108834   16.769331   18.773837 H          1 MOL1         0.0794
      40    H19     14.298431   18.298764   18.505848 H          1 MOL1         0.0794
      41    O10     13.166642   16.872281   19.510558 O.3        1 MOL1        -0.5486
      42    H20     12.770265   16.612759   18.650237 H          1 MOL1         0.3769
      43    C13     18.663359   23.628522   20.442542 C.3        1 MOL1         0.2972
      44    H21     19.017118   24.528051   19.922268 H          1 MOL1         0.0751
      45    O11     19.718389   22.993375   21.182503 O.3        1 MOL1        -0.3740
      46    C14     17.531015   23.974060   21.447278 C.3        1 MOL1         0.1003
      47    H22     16.722215   24.448414   20.876486 H          1 MOL1         0.0783
      48    O12     17.995513   24.889014   22.453522 O.3        1 MOL1        -0.5519
      49    H23     18.848936   24.531790   22.808182 H          1 MOL1         0.3769
      50    C15     16.959695   22.692847   22.108359 C.3        1 MOL1         0.1053
      51    H24     17.737688   22.259945   22.750171 H          1 MOL1         0.0783
      52    O13     15.815999   23.035402   22.897542 O.3        1 MOL1        -0.5519
      53    H25     16.087360   23.827134   23.412941 H          1 MOL1         0.3769
      54    C16     16.576161   21.646735   21.031405 C.3        1 MOL1         0.1018
      55    H26     15.723172   22.036391   20.459648 H          1 MOL1         0.0783
      56    C17     17.745170   21.391785   20.044526 C.3        1 MOL1         0.1043
      57    H27     18.579681   20.938767   20.593923 H          1 MOL1         0.0783
      58    O14     18.157479   22.665439   19.490559 O.3        1 MOL1        -0.3740
      59    C18     17.400086   20.437203   18.873775 C.3        1 MOL1         0.0138
      60    H28     17.570778   19.407168   19.207853 H          1 MOL1         0.0794
      61    H29     18.103481   20.622810   18.051172 H          1 MOL1         0.0794
      62    O15     16.051432   20.579904   18.409589 O.3        1 MOL1        -0.5486
      63    H30     15.455466   20.293393   19.139742 H          1 MOL1         0.3769
      64    C19     23.736124   22.935350   21.870509 C.3        1 MOL1         0.2972
      65    H31     24.811757   23.100421   22.012698 H          1 MOL1         0.0751
      66    O16     23.385205   21.541854   21.980963 O.3        1 MOL1        -0.3740
      67    C20     22.938398   23.709349   22.944912 C.3        1 MOL1         0.1003
      68    H32     23.132264   24.780422   22.802347 H          1 MOL1         0.0783
      69    O17     23.362072   23.314874   24.259935 O.3        1 MOL1        -0.5519
      70    H33     23.627059   22.363215   24.203682 H          1 MOL1         0.3769
      71    C21     21.423302   23.463583   22.767595 C.3        1 MOL1         0.1053
      72    H34     21.230838   22.412918   23.014847 H          1 MOL1         0.0783
      73    O18     20.686894   24.305416   23.660933 O.3        1 MOL1        -0.5519
      74    H35     21.127664   24.197492   24.532872 H          1 MOL1         0.3769
      75    C22     20.957834   23.712145   21.310197 C.3        1 MOL1         0.1018
      76    H36     20.826673   24.792857   21.166544 H          1 MOL1         0.0783
      77    C23     21.926544   23.133532   20.236556 C.3        1 MOL1         0.1043
      78    H37     21.775767   22.046669   20.209312 H          1 MOL1         0.0783
      79    O19     23.310683   23.407026   20.576641 O.3        1 MOL1        -0.3740
      80    C24     21.661929   23.663991   18.807065 C.3        1 MOL1         0.0138
      81    H38     20.722839   23.228324   18.440254 H          1 MOL1         0.0794
      82    H39     22.464647   23.308312   18.147233 H          1 MOL1         0.0794
      83    O20     21.582835   25.094108   18.767771 O.3        1 MOL1        -0.5486
      84    H40     21.492801   25.362066   17.827206 H          1 MOL1         0.3769
      85    C25     25.081126   17.732797   21.772777 C.3        1 MOL1         0.2972
      86    H41     25.789931   16.900554   21.674613 H          1 MOL1         0.0751
      87    O21     23.726580   17.263133   21.898250 O.3        1 MOL1        -0.3740
      88    C26     25.411303   18.554830   23.044125 C.3        1 MOL1         0.1003
      89    H42     26.440016   18.924287   22.942623 H          1 MOL1         0.0783
      90    O22     25.317939   17.725247   24.213190 O.3        1 MOL1        -0.5519
      91    H43     24.660355   17.015992   24.007482 H          1 MOL1         0.3769
      92    C27     24.473300   19.778931   23.171150 C.3        1 MOL1         0.1053
      93    H44     23.453167   19.414135   23.356292 H          1 MOL1         0.0783
      94    O23     24.899796   20.602260   24.262221 O.3        1 MOL1        -0.5519
      95    H45     25.057567   19.977248   25.004639 H          1 MOL1         0.3769
      96    C28     24.465129   20.600822   21.860510 C.3        1 MOL1         0.1018
      97    H46     25.438946   21.095922   21.750570 H          1 MOL1         0.0783
      98    C29     24.197167   19.702256   20.621870 C.3        1 MOL1         0.1043
      99    H47     23.177540   19.304998   20.709308 H          1 MOL1         0.0783
     100    O24     25.144982   18.603368   20.621033 O.3        1 MOL1        -0.3740
     101    C30     24.283499   20.427094   19.253453 C.3        1 MOL1         0.0138
     102    H48     23.296096   20.841154   19.014770 H          1 MOL1         0.0794
     103    H49     24.510825   19.683794   18.477592 H          1 MOL1         0.0794
     104    O25     25.258504   21.475222   19.228309 O.3        1 MOL1        -0.5486
     105    H50     24.833192   22.267886   19.629727 H          1 MOL1         0.3769
     106    C31     21.271592   13.988619   21.065531 C.3        1 MOL1         0.2972
     107    H51     20.915411   13.001868   20.742351 H          1 MOL1         0.0751
     108    O26     20.164401   14.815947   21.481445 O.3        1 MOL1        -0.3740
     109    C32     22.294344   13.805379   22.222589 C.3        1 MOL1         0.1003
     110    H52     23.097072   13.167351   21.831233 H          1 MOL1         0.0783
     111    O27     21.704429   13.153242   23.357211 O.3        1 MOL1        -0.5519
     112    H53     21.146161   13.829168   23.828298 H          1 MOL1         0.3769
     113    C33     22.930448   15.147500   22.646566 C.3        1 MOL1         0.1053
     114    H54     22.148977   15.753301   23.113873 H          1 MOL1         0.0783
     115    O28     23.988472   14.916324   23.583452 O.3        1 MOL1        -0.5519
     116    H55     23.589199   14.355815   24.285496 H          1 MOL1         0.3769
     117    C34     23.470334   15.926945   21.428109 C.3        1 MOL1         0.1018
     118    H56     24.377163   15.428397   21.061232 H          1 MOL1         0.0783
     119    C35     22.419757   16.007898   20.290057 C.3        1 MOL1         0.1043
     120    H57     21.589519   16.617361   20.665111 H          1 MOL1         0.0783
     121    O29     21.936303   14.674242   19.977763 O.3        1 MOL1        -0.3740
     122    C36     22.925071   16.672809   18.982130 C.3        1 MOL1         0.0138
     123    H58     22.753727   17.753826   19.052277 H          1 MOL1         0.0794
     124    H59     22.316727   16.311665   18.142877 H          1 MOL1         0.0794
     125    O30     24.310167   16.424183   18.718890 O.3        1 MOL1        -0.5486
     126    H60     24.823081   17.057416   19.272664 H          1 MOL1         0.3769
     127    C1      19.378729   15.478496   24.795560 C.2        1 MOL1         0.6173
     128    O1      18.474021   14.795217   25.233700 O.co2      1 MOL1        -0.6755
     129    O2      20.553167   15.192637   24.939130 O.co2      1 MOL1        -0.6755
     130    C2      19.003750   16.666631   23.980844 C.2        1 MOL1        -0.1504
     131    H1      17.938613   16.807308   23.824992 H          1 MOL1         0.0814
     132    C3      19.895190   17.530625   23.444221 C.2        1 MOL1        -0.1394
     133    H2      20.961334   17.411218   23.619060 H          1 MOL1         0.0817
     134    C4      19.518091   18.723054   22.593946 C.3        1 MOL1        -0.1849
     135    H3      18.468935   18.664353   22.277609 H          1 MOL1         0.0736
     136    H4      20.121411   18.714964   21.677422 H          1 MOL1         0.0736
     137    C5      19.760655   20.048928   23.339113 C.3        1 MOL1        -0.1866
     138    H5      20.803972   20.098735   23.679924 H          1 MOL1         0.0738
     139    H6      19.618397   20.876135   22.638061 H          1 MOL1         0.0738
     140    C6      18.808186   20.239447   24.537047 C.3        1 MOL1        -0.2879
     141    H7      18.972401   19.465988   25.298185 H          1 MOL1         0.0750
     142    H8      18.970317   21.217776   25.007161 H          1 MOL1         0.0750
     143    H9      17.761144   20.184437   24.216104 H          1 MOL1         0.0750
@<TRIPOS>BOND
    1     1     2    1
    2     1     3    1
    3     1     4    1
    4     4     5    1
    5     4     6    1
    6     6     7    1
    7     4     8    1
    8     8     9    1
    9     8    10    1
   10    10    11    1
   11     8    12    1
   12    12    13    1
   13    12    14    1
   14    14    15    1
   15     1    16    1
   16    14    16    1
   17    14    17    1
   18    17    18    1
   19    17    19    1
   20    17    20    1
   21    20    21    1
   22    22    23    1
   23    22    24    1
   24    22    25    1
   25    25    26    1
   26    25    27    1
   27    27    28    1
   28    25    29    1
   29    29    30    1
   30    29    31    1
   31    31    32    1
   32     3    33    1
   33    29    33    1
   34    33    34    1
   35    33    35    1
   36    35    36    1
   37    22    37    1
   38    35    37    1
   39    35    38    1
   40    38    39    1
   41    38    40    1
   42    38    41    1
   43    41    42    1
   44    43    44    1
   45    43    45    1
   46    43    46    1
   47    46    47    1
   48    46    48    1
   49    48    49    1
   50    46    50    1
   51    50    51    1
   52    50    52    1
   53    52    53    1
   54    24    54    1
   55    50    54    1
   56    54    55    1
   57    54    56    1
   58    56    57    1
   59    43    58    1
   60    56    58    1
   61    56    59    1
   62    59    60    1
   63    59    61    1
   64    59    62    1
   65    62    63    1
   66    64    65    1
   67    64    66    1
   68    64    67    1
   69    67    68    1
   70    67    69    1
   71    69    70    1
   72    67    71    1
   73    71    72    1
   74    71    73    1
   75    73    74    1
   76    45    75    1
   77    71    75    1
   78    75    76    1
   79    75    77    1
   80    77    78    1
   81    64    79    1
   82    77    79    1
   83    77    80    1
   84    80    81    1
   85    80    82    1
   86    80    83    1
   87    83    84    1
   88    85    86    1
   89    85    87    1
   90    85    88    1
   91    88    89    1
   92    88    90    1
   93    90    91    1
   94    88    92    1
   95    92    93    1
   96    92    94    1
   97    94    95    1
   98    66    96    1
   99    92    96    1
  100    96    97    1
  101    96    98    1
  102    98    99    1
  103    85   100    1
  104    98   100    1
  105    98   101    1
  106   101   102    1
  107   101   103    1
  108   101   104    1
  109   104   105    1
  110   106   107    1
  111    12   108    1
  112   106   108    1
  113   106   109    1
  114   109   110    1
  115   109   111    1
  116   111   112    1
  117   109   113    1
  118   113   114    1
  119   113   115    1
  120   115   116    1
  121    87   117    1
  122   113   117    1
  123   117   118    1
  124   117   119    1
  125   119   120    1
  126   106   121    1
  127   119   121    1
  128   119   122    1
  129   122   123    1
  130   122   124    1
  131   122   125    1
  132   125   126    1
  133   127   128    1
  134   127   129    2
  135   127   130    1
  136   130   131    1
  137   130   132    2
  138   132   133    1
  139   132   134    1
  140   134   135    1
  141   134   136    1
  142   134   137    1
  143   137   138    1
  144   137   139    1
  145   137   140    1
  146   140   141    1
  147   140   142    1
  148   140   143    1
@<TRIPOS>SUBSTRUCTURE
       1 MOL1            1 RESIDUE      1      MOL     
       2 MOL1          143 RESIDUE      1      MOL     
@<SCITEGIC>MOL_PROPERTY
feprocess Rank
SciTegic.value.IntegerValue
152

@<SCITEGIC>MOL_PROPERTY
Conf_Id
SciTegic.value.IntegerValue
780

@<SCITEGIC>MOL_PROPERTY
Probability
SciTegic.value.DoubleValue
0.00

@<SCITEGIC>MOL_PROPERTY
G
SciTegic.value.DoubleValue
503.723

@<SCITEGIC>MOL_PROPERTY
E
SciTegic.value.DoubleValue
322.370

@<SCITEGIC>MOL_PROPERTY
-TS
SciTegic.value.DoubleValue
181.353

@<SCITEGIC>MOL_PROPERTY
U+W
SciTegic.value.DoubleValue
196.282

@<SCITEGIC>MOL_PROPERTY
U
SciTegic.value.DoubleValue
277.822

@<SCITEGIC>MOL_PROPERTY
W
SciTegic.value.DoubleValue
-81.540

@<SCITEGIC>MOL_PROPERTY
W(PB)
SciTegic.value.DoubleValue
-87.516

@<SCITEGIC>MOL_PROPERTY
W(SA)
SciTegic.value.DoubleValue
5.976

@<SCITEGIC>MOL_PROPERTY
Valence
SciTegic.value.DoubleValue
149.729

@<SCITEGIC>MOL_PROPERTY
Coulomb
SciTegic.value.DoubleValue
154.264

@<SCITEGIC>MOL_PROPERTY
VdW
SciTegic.value.DoubleValue
-26.171

@<SCITEGIC>MOL_PROPERTY
VdW6
SciTegic.value.DoubleValue
-179.503

@<SCITEGIC>MOL_PROPERTY
VdW12
SciTegic.value.DoubleValue
153.332

@<SCITEGIC>MOL_PROPERTY
Bond
SciTegic.value.DoubleValue
4.923

@<SCITEGIC>MOL_PROPERTY
Angle
SciTegic.value.DoubleValue
14.964

@<SCITEGIC>MOL_PROPERTY
Pdih
SciTegic.value.DoubleValue
129.831

@<SCITEGIC>MOL_PROPERTY
Idih
SciTegic.value.DoubleValue
0.011

@<SCITEGIC>MOL_PROPERTY
Tether
SciTegic.value.DoubleValue
0.000

@<TRIPOS>MOLECULE
CD_guest-s19_fast_vm2_rndm.mol2 : feprocess host+ligand conformer 153
         143         148           2
SMALL
USER_CHARGES
 
@<TRIPOS>ATOM
       1    C1      16.759651   16.021231   19.831554 C.3        1 MOL1         0.2972
       2    H1      15.952337   15.976059   19.089388 H          1 MOL1         0.0751
       3    O1      16.570779   17.105530   20.752836 O.3        1 MOL1        -0.3740
       4    C2      16.834062   14.704815   20.650067 C.3        1 MOL1         0.1003
       5    H2      16.965316   13.886388   19.930350 H          1 MOL1         0.0783
       6    O2      15.620653   14.486956   21.389221 O.3        1 MOL1        -0.5519
       7    H3      15.433603   15.314207   21.901062 H          1 MOL1         0.3769
       8    C3      18.054866   14.692003   21.607547 C.3        1 MOL1         0.1053
       9    H4      17.882732   15.434138   22.399643 H          1 MOL1         0.0783
      10    O3      18.164257   13.384110   22.176594 O.3        1 MOL1        -0.5519
      11    H5      17.260444   13.165293   22.494620 H          1 MOL1         0.3769
      12    C4      19.358058   15.075855   20.853112 C.3        1 MOL1         0.1018
      13    H6      19.600956   14.274439   20.142712 H          1 MOL1         0.0783
      14    C5      19.163962   16.394295   20.059554 C.3        1 MOL1         0.1043
      15    H7      18.972472   17.207939   20.771820 H          1 MOL1         0.0783
      16    O4      18.028297   16.232828   19.176635 O.3        1 MOL1        -0.3740
      17    C6      20.382731   16.814336   19.205645 C.3        1 MOL1         0.0138
      18    H8      21.106997   17.302104   19.868182 H          1 MOL1         0.0794
      19    H9      20.058635   17.568969   18.476769 H          1 MOL1         0.0794
      20    O5      20.997360   15.709104   18.531079 O.3        1 MOL1        -0.5486
      21    H10     21.277307   15.061774   19.215354 H          1 MOL1         0.3769
      22    C7      14.347703   20.399915   21.546057 C.3        1 MOL1         0.2972
      23    H11     13.628833   21.214424   21.701162 H          1 MOL1         0.0751
      24    O6      15.689262   20.800738   21.888965 O.3        1 MOL1        -0.3740
      25    C8      13.984216   19.194409   22.445025 C.3        1 MOL1         0.1003
      26    H12     13.005890   18.813054   22.125741 H          1 MOL1         0.0783
      27    O7      13.910463   19.623127   23.813419 O.3        1 MOL1        -0.5519
      28    H13     14.736232   20.126521   23.998194 H          1 MOL1         0.3769
      29    C9      15.029780   18.066730   22.263625 C.3        1 MOL1         0.1053
      30    H14     15.977781   18.432740   22.671459 H          1 MOL1         0.0783
      31    O8      14.645003   16.876713   22.963064 O.3        1 MOL1        -0.5519
      32    H15     15.065376   16.955492   23.861633 H          1 MOL1         0.3769
      33    C10     15.270064   17.720907   20.774570 C.3        1 MOL1         0.1018
      34    H16     14.480106   17.032702   20.445722 H          1 MOL1         0.0783
      35    C11     15.341315   18.962252   19.836128 C.3        1 MOL1         0.1043
      36    H17     16.332157   19.415332   19.969632 H          1 MOL1         0.0783
      37    O9      14.329986   19.944700   20.178840 O.3        1 MOL1        -0.3740
      38    C12     15.196795   18.621181   18.332684 C.3        1 MOL1         0.0138
      39    H18     16.116599   18.124803   17.995508 H          1 MOL1         0.0794
      40    H19     15.108273   19.557918   17.766600 H          1 MOL1         0.0794
      41    O10     14.066283   17.780030   18.074548 O.3        1 MOL1        -0.5486
      42    H20     13.984874   17.678879   17.101040 H          1 MOL1         0.3769
      43    C13     18.408322   23.923913   21.811014 C.3        1 MOL1         0.2972
      44    H21     18.902638   24.903344   21.774297 H          1 MOL1         0.0751
      45    O11     19.367733   22.847618   21.826929 O.3        1 MOL1        -0.3740
      46    C14     17.532658   23.836231   23.083218 C.3        1 MOL1         0.1003
      47    H22     16.796835   24.649212   23.031761 H          1 MOL1         0.0783
      48    O12     18.337662   24.000772   24.261670 O.3        1 MOL1        -0.5519
      49    H23     19.275009   23.828339   23.995627 H          1 MOL1         0.3769
      50    C15     16.760077   22.499471   23.137735 C.3        1 MOL1         0.1053
      51    H24     17.488653   21.696896   23.303759 H          1 MOL1         0.0783
      52    O13     15.830492   22.535618   24.225500 O.3        1 MOL1        -0.5519
      53    H25     16.352414   22.850666   24.995862 H          1 MOL1         0.3769
      54    C16     16.013956   22.201154   21.812254 C.3        1 MOL1         0.1018
      55    H26     15.117986   22.833718   21.766770 H          1 MOL1         0.0783
      56    C17     16.913436   22.443072   20.561496 C.3        1 MOL1         0.1043
      57    H27     17.680244   21.658624   20.551865 H          1 MOL1         0.0783
      58    O14     17.557573   23.738895   20.661757 O.3        1 MOL1        -0.3740
      59    C18     16.193658   22.389242   19.188493 C.3        1 MOL1         0.0138
      60    H28     16.257865   21.368212   18.796512 H          1 MOL1         0.0794
      61    H29     16.741342   23.026965   18.481574 H          1 MOL1         0.0794
      62    O15     14.823122   22.796451   19.247941 O.3        1 MOL1        -0.5486
      63    H30     14.306809   22.000358   19.509908 H          1 MOL1         0.3769
      64    C19     23.468441   22.350858   20.995062 C.3        1 MOL1         0.2972
      65    H31     24.481117   22.563784   20.629419 H          1 MOL1         0.0751
      66    O16     23.376176   21.025201   21.546182 O.3        1 MOL1        -0.3740
      67    C20     23.099751   23.357519   22.116220 C.3        1 MOL1         0.1003
      68    H32     23.195104   24.366809   21.695156 H          1 MOL1         0.0783
      69    O17     23.999830   23.224484   23.227920 O.3        1 MOL1        -0.5519
      70    H33     24.359355   22.303379   23.195950 H          1 MOL1         0.3769
      71    C21     21.634789   23.173289   22.579774 C.3        1 MOL1         0.1053
      72    H34     21.545104   22.195150   23.073058 H          1 MOL1         0.0783
      73    O18     21.288587   24.217829   23.495367 O.3        1 MOL1        -0.5519
      74    H35     22.046383   24.266853   24.120205 H          1 MOL1         0.3769
      75    C22     20.684807   23.196062   21.360353 C.3        1 MOL1         0.1018
      76    H36     20.707942   24.199354   20.914322 H          1 MOL1         0.0783
      77    C23     21.130346   22.167068   20.287948 C.3        1 MOL1         0.1043
      78    H37     21.066697   21.163816   20.725791 H          1 MOL1         0.0783
      79    O19     22.505320   22.450882   19.920486 O.3        1 MOL1        -0.3740
      80    C24     20.265488   22.158116   19.001337 C.3        1 MOL1         0.0138
      81    H38     19.413166   21.486031   19.160219 H          1 MOL1         0.0794
      82    H39     20.859158   21.729509   18.182865 H          1 MOL1         0.0794
      83    O20     19.789292   23.458216   18.633960 O.3        1 MOL1        -0.5486
      84    H40     19.082023   23.701612   19.275542 H          1 MOL1         0.3769
      85    C25     25.334178   17.325288   21.453678 C.3        1 MOL1         0.2972
      86    H41     26.026581   16.503175   21.231131 H          1 MOL1         0.0751
      87    O21     24.266622   16.889725   22.318560 O.3        1 MOL1        -0.3740
      88    C26     26.076621   18.469540   22.192830 C.3        1 MOL1         0.1003
      89    H42     26.896762   18.807341   21.545994 H          1 MOL1         0.0783
      90    O22     26.611602   17.992249   23.436074 O.3        1 MOL1        -0.5519
      91    H43     25.880732   17.494483   23.869432 H          1 MOL1         0.3769
      92    C27     25.134959   19.673083   22.450607 C.3        1 MOL1         0.1053
      93    H44     24.371867   19.363310   23.177261 H          1 MOL1         0.0783
      94    O23     25.888080   20.769957   22.978800 O.3        1 MOL1        -0.5519
      95    H45     26.453027   20.380685   23.682682 H          1 MOL1         0.3769
      96    C28     24.412805   20.106463   21.153677 C.3        1 MOL1         0.1018
      97    H46     25.148445   20.571617   20.484338 H          1 MOL1         0.0783
      98    C29     23.759394   18.897481   20.432086 C.3        1 MOL1         0.1043
      99    H47     22.965099   18.496004   21.070601 H          1 MOL1         0.0783
     100    O24     24.765417   17.875696   20.241982 O.3        1 MOL1        -0.3740
     101    C30     23.114449   19.227523   19.061457 C.3        1 MOL1         0.0138
     102    H48     22.084628   19.564094   19.235278 H          1 MOL1         0.0794
     103    H49     23.053783   18.303059   18.471354 H          1 MOL1         0.0794
     104    O25     23.824206   20.232097   18.329107 O.3        1 MOL1        -0.5486
     105    H50     23.549520   21.102586   18.699718 H          1 MOL1         0.3769
     106    C31     21.234823   14.093487   22.043497 C.3        1 MOL1         0.2972
     107    H51     20.619441   13.185862   22.014552 H          1 MOL1         0.0751
     108    O26     20.431022   15.269656   21.804311 O.3        1 MOL1        -0.3740
     109    C32     21.920882   14.197225   23.423036 C.3        1 MOL1         0.1003
     110    H52     22.535053   13.297170   23.556769 H          1 MOL1         0.0783
     111    O27     20.938384   14.264115   24.466972 O.3        1 MOL1        -0.5519
     112    H53     20.237136   14.872082   24.142814 H          1 MOL1         0.3769
     113    C33     22.850225   15.424921   23.489512 C.3        1 MOL1         0.1053
     114    H54     22.212943   16.317129   23.456696 H          1 MOL1         0.0783
     115    O28     23.570413   15.393199   24.726609 O.3        1 MOL1        -0.5519
     116    H55     22.889814   15.224053   25.414607 H          1 MOL1         0.3769
     117    C34     23.841701   15.504849   22.298633 C.3        1 MOL1         0.1018
     118    H56     24.685741   14.833873   22.502475 H          1 MOL1         0.0783
     119    C35     23.183326   15.141048   20.925925 C.3        1 MOL1         0.1043
     120    H57     22.631066   16.022453   20.589774 H          1 MOL1         0.0783
     121    O29     22.265351   14.021879   21.040565 O.3        1 MOL1        -0.3740
     122    C36     24.181790   14.738545   19.807298 C.3        1 MOL1         0.0138
     123    H58     24.670084   15.629626   19.400130 H          1 MOL1         0.0794
     124    H59     23.612956   14.294280   18.979282 H          1 MOL1         0.0794
     125    O30     25.170686   13.812249   20.272405 O.3        1 MOL1        -0.5486
     126    H60     25.707243   13.534560   19.497963 H          1 MOL1         0.3769
     127    C1      16.764822   18.321465   25.548108 C.2        1 MOL1         0.6173
     128    O1      16.309784   18.808874   26.564217 O.co2      1 MOL1        -0.6755
     129    O2      16.413068   17.239358   25.114356 O.co2      1 MOL1        -0.6755
     130    C2      17.766697   19.124378   24.794694 C.2        1 MOL1        -0.1504
     131    H1      17.999674   20.100729   25.212575 H          1 MOL1         0.0814
     132    C3      18.370458   18.706485   23.658755 C.2        1 MOL1        -0.1394
     133    H2      18.148652   17.726831   23.237823 H          1 MOL1         0.0817
     134    C4      19.368673   19.537625   22.883415 C.3        1 MOL1        -0.1849
     135    H3      19.428024   20.552673   23.295594 H          1 MOL1         0.0736
     136    H4      19.021929   19.643622   21.847449 H          1 MOL1         0.0736
     137    C5      20.776180   18.913071   22.891352 C.3        1 MOL1        -0.1866
     138    H5      20.734898   17.891210   22.494361 H          1 MOL1         0.0738
     139    H6      21.413474   19.493503   22.219943 H          1 MOL1         0.0738
     140    C6      21.413611   18.910258   24.295977 C.3        1 MOL1        -0.2879
     141    H7      20.830397   18.293883   24.992145 H          1 MOL1         0.0750
     142    H8      22.433045   18.507004   24.260587 H          1 MOL1         0.0750
     143    H9      21.467525   19.928366   24.702380 H          1 MOL1         0.0750
@<TRIPOS>BOND
    1     1     2    1
    2     1     3    1
    3     1     4    1
    4     4     5    1
    5     4     6    1
    6     6     7    1
    7     4     8    1
    8     8     9    1
    9     8    10    1
   10    10    11    1
   11     8    12    1
   12    12    13    1
   13    12    14    1
   14    14    15    1
   15     1    16    1
   16    14    16    1
   17    14    17    1
   18    17    18    1
   19    17    19    1
   20    17    20    1
   21    20    21    1
   22    22    23    1
   23    22    24    1
   24    22    25    1
   25    25    26    1
   26    25    27    1
   27    27    28    1
   28    25    29    1
   29    29    30    1
   30    29    31    1
   31    31    32    1
   32     3    33    1
   33    29    33    1
   34    33    34    1
   35    33    35    1
   36    35    36    1
   37    22    37    1
   38    35    37    1
   39    35    38    1
   40    38    39    1
   41    38    40    1
   42    38    41    1
   43    41    42    1
   44    43    44    1
   45    43    45    1
   46    43    46    1
   47    46    47    1
   48    46    48    1
   49    48    49    1
   50    46    50    1
   51    50    51    1
   52    50    52    1
   53    52    53    1
   54    24    54    1
   55    50    54    1
   56    54    55    1
   57    54    56    1
   58    56    57    1
   59    43    58    1
   60    56    58    1
   61    56    59    1
   62    59    60    1
   63    59    61    1
   64    59    62    1
   65    62    63    1
   66    64    65    1
   67    64    66    1
   68    64    67    1
   69    67    68    1
   70    67    69    1
   71    69    70    1
   72    67    71    1
   73    71    72    1
   74    71    73    1
   75    73    74    1
   76    45    75    1
   77    71    75    1
   78    75    76    1
   79    75    77    1
   80    77    78    1
   81    64    79    1
   82    77    79    1
   83    77    80    1
   84    80    81    1
   85    80    82    1
   86    80    83    1
   87    83    84    1
   88    85    86    1
   89    85    87    1
   90    85    88    1
   91    88    89    1
   92    88    90    1
   93    90    91    1
   94    88    92    1
   95    92    93    1
   96    92    94    1
   97    94    95    1
   98    66    96    1
   99    92    96    1
  100    96    97    1
  101    96    98    1
  102    98    99    1
  103    85   100    1
  104    98   100    1
  105    98   101    1
  106   101   102    1
  107   101   103    1
  108   101   104    1
  109   104   105    1
  110   106   107    1
  111    12   108    1
  112   106   108    1
  113   106   109    1
  114   109   110    1
  115   109   111    1
  116   111   112    1
  117   109   113    1
  118   113   114    1
  119   113   115    1
  120   115   116    1
  121    87   117    1
  122   113   117    1
  123   117   118    1
  124   117   119    1
  125   119   120    1
  126   106   121    1
  127   119   121    1
  128   119   122    1
  129   122   123    1
  130   122   124    1
  131   122   125    1
  132   125   126    1
  133   127   128    1
  134   127   129    2
  135   127   130    1
  136   130   131    1
  137   130   132    2
  138   132   133    1
  139   132   134    1
  140   134   135    1
  141   134   136    1
  142   134   137    1
  143   137   138    1
  144   137   139    1
  145   137   140    1
  146   140   141    1
  147   140   142    1
  148   140   143    1
@<TRIPOS>SUBSTRUCTURE
       1 MOL1            1 RESIDUE      1      MOL     
       2 MOL1          143 RESIDUE      1      MOL     
@<SCITEGIC>MOL_PROPERTY
feprocess Rank
SciTegic.value.IntegerValue
153

@<SCITEGIC>MOL_PROPERTY
Conf_Id
SciTegic.value.IntegerValue
636

@<SCITEGIC>MOL_PROPERTY
Probability
SciTegic.value.DoubleValue
0.00

@<SCITEGIC>MOL_PROPERTY
G
SciTegic.value.DoubleValue
503.773

@<SCITEGIC>MOL_PROPERTY
E
SciTegic.value.DoubleValue
323.054

@<SCITEGIC>MOL_PROPERTY
-TS
SciTegic.value.DoubleValue
180.719

@<SCITEGIC>MOL_PROPERTY
U+W
SciTegic.value.DoubleValue
196.966

@<SCITEGIC>MOL_PROPERTY
U
SciTegic.value.DoubleValue
281.123

@<SCITEGIC>MOL_PROPERTY
W
SciTegic.value.DoubleValue
-84.157

@<SCITEGIC>MOL_PROPERTY
W(PB)
SciTegic.value.DoubleValue
-90.072

@<SCITEGIC>MOL_PROPERTY
W(SA)
SciTegic.value.DoubleValue
5.914

@<SCITEGIC>MOL_PROPERTY
Valence
SciTegic.value.DoubleValue
149.138

@<SCITEGIC>MOL_PROPERTY
Coulomb
SciTegic.value.DoubleValue
158.601

@<SCITEGIC>MOL_PROPERTY
VdW
SciTegic.value.DoubleValue
-26.616

@<SCITEGIC>MOL_PROPERTY
VdW6
SciTegic.value.DoubleValue
-178.472

@<SCITEGIC>MOL_PROPERTY
VdW12
SciTegic.value.DoubleValue
151.855

@<SCITEGIC>MOL_PROPERTY
Bond
SciTegic.value.DoubleValue
4.719

@<SCITEGIC>MOL_PROPERTY
Angle
SciTegic.value.DoubleValue
15.752

@<SCITEGIC>MOL_PROPERTY
Pdih
SciTegic.value.DoubleValue
128.664

@<SCITEGIC>MOL_PROPERTY
Idih
SciTegic.value.DoubleValue
0.003

@<SCITEGIC>MOL_PROPERTY
Tether
SciTegic.value.DoubleValue
0.000

@<TRIPOS>MOLECULE
CD_guest-s19_fast_vm2_rndm.mol2 : feprocess host+ligand conformer 154
         143         148           2
SMALL
USER_CHARGES
 
@<TRIPOS>ATOM
       1    C1      16.171293   15.230364   20.865471 C.3        1 MOL1         0.2972
       2    H1      15.145880   15.029903   20.530142 H          1 MOL1         0.0751
       3    O1      16.289561   16.540048   21.449960 O.3        1 MOL1        -0.3740
       4    C2      16.570771   14.212549   21.962591 C.3        1 MOL1         0.1003
       5    H2      16.470774   13.205837   21.536491 H          1 MOL1         0.0783
       6    O2      15.698758   14.341166   23.097292 O.3        1 MOL1        -0.5519
       7    H3      15.500837   15.305249   23.190989 H          1 MOL1         0.3769
       8    C3      18.044422   14.410410   22.391396 C.3        1 MOL1         0.1053
       9    H4      18.129077   15.378781   22.903519 H          1 MOL1         0.0783
      10    O3      18.430736   13.354497   23.277922 O.3        1 MOL1        -0.5519
      11    H5      17.695004   13.283238   23.926110 H          1 MOL1         0.3769
      12    C4      18.974725   14.435105   21.156507 C.3        1 MOL1         0.1018
      13    H6      18.994165   13.430093   20.714844 H          1 MOL1         0.0783
      14    C5      18.478552   15.448135   20.088972 C.3        1 MOL1         0.1043
      15    H7      18.525947   16.457610   20.516153 H          1 MOL1         0.0783
      16    O4      17.101826   15.125656   19.764343 O.3        1 MOL1        -0.3740
      17    C6      19.308623   15.475140   18.779371 C.3        1 MOL1         0.0138
      18    H8      20.145734   16.172486   18.912016 H          1 MOL1         0.0794
      19    H9      18.682879   15.886347   17.976592 H          1 MOL1         0.0794
      20    O5      19.811703   14.187604   18.403089 O.3        1 MOL1        -0.5486
      21    H10     20.624292   14.034736   18.938410 H          1 MOL1         0.3769
      22    C7      14.660125   20.368698   21.132838 C.3        1 MOL1         0.2972
      23    H11     14.014266   21.232407   20.928838 H          1 MOL1         0.0751
      24    O6      15.948446   20.766677   21.633291 O.3        1 MOL1        -0.3740
      25    C8      14.030789   19.455016   22.213241 C.3        1 MOL1         0.1003
      26    H12     13.051184   19.126280   21.842825 H          1 MOL1         0.0783
      27    O7      13.861171   20.178759   23.443816 O.3        1 MOL1        -0.5519
      28    H13     14.691567   20.698500   23.588845 H          1 MOL1         0.3769
      29    C9      14.906578   18.198276   22.448218 C.3        1 MOL1         0.1053
      30    H14     15.845063   18.519184   22.922043 H          1 MOL1         0.0783
      31    O8      14.215142   17.289093   23.312741 O.3        1 MOL1        -0.5519
      32    H15     13.890912   17.840603   24.058683 H          1 MOL1         0.3769
      33    C10     15.261292   17.490488   21.116295 C.3        1 MOL1         0.1018
      34    H16     14.355258   16.999391   20.737992 H          1 MOL1         0.0783
      35    C11     15.798170   18.493211   20.053989 C.3        1 MOL1         0.1043
      36    H17     16.762946   18.882238   20.400520 H          1 MOL1         0.0783
      37    O9      14.854184   19.584587   19.937089 O.3        1 MOL1        -0.3740
      38    C12     16.037108   17.915023   18.637255 C.3        1 MOL1         0.0138
      39    H18     17.048887   17.492481   18.602874 H          1 MOL1         0.0794
      40    H19     16.021713   18.743847   17.917383 H          1 MOL1         0.0794
      41    O10     15.080174   16.917415   18.262609 O.3        1 MOL1        -0.5486
      42    H20     15.476655   16.051917   18.508073 H          1 MOL1         0.3769
      43    C13     18.523095   24.010465   21.746425 C.3        1 MOL1         0.2972
      44    H21     18.968435   25.013578   21.775275 H          1 MOL1         0.0751
      45    O11     19.536439   22.991183   21.676452 O.3        1 MOL1        -0.3740
      46    C14     17.683980   23.775286   23.026013 C.3        1 MOL1         0.1003
      47    H22     16.891684   24.534674   23.050342 H          1 MOL1         0.0783
      48    O12     18.508230   23.909787   24.193207 O.3        1 MOL1        -0.5519
      49    H23     19.412941   23.629412   23.923232 H          1 MOL1         0.3769
      50    C15     17.014408   22.383605   22.993472 C.3        1 MOL1         0.1053
      51    H24     17.804701   21.622282   23.038587 H          1 MOL1         0.0783
      52    O13     16.136702   22.242888   24.116930 O.3        1 MOL1        -0.5519
      53    H25     16.668136   22.535666   24.890063 H          1 MOL1         0.3769
      54    C16     16.223162   22.176012   21.682365 C.3        1 MOL1         0.1018
      55    H26     15.304401   22.775417   21.728901 H          1 MOL1         0.0783
      56    C17     17.055640   22.553401   20.424748 C.3        1 MOL1         0.1043
      57    H27     17.839835   21.794279   20.314225 H          1 MOL1         0.0783
      58    O14     17.665908   23.860643   20.595090 O.3        1 MOL1        -0.3740
      59    C18     16.240671   22.577037   19.109280 C.3        1 MOL1         0.0138
      60    H28     16.018081   21.543642   18.815031 H          1 MOL1         0.0794
      61    H29     16.866240   23.007303   18.315843 H          1 MOL1         0.0794
      62    O15     15.023747   23.322572   19.242212 O.3        1 MOL1        -0.5486
      63    H30     14.585592   23.335241   18.363616 H          1 MOL1         0.3769
      64    C19     23.540000   22.515842   20.628103 C.3        1 MOL1         0.2972
      65    H31     24.543561   22.612246   20.194176 H          1 MOL1         0.0751
      66    O16     23.376470   21.275227   21.336264 O.3        1 MOL1        -0.3740
      67    C20     23.257534   23.655347   21.639452 C.3        1 MOL1         0.1003
      68    H32     23.341643   24.606897   21.098711 H          1 MOL1         0.0783
      69    O17     24.210937   23.630940   22.714956 O.3        1 MOL1        -0.5519
      70    H33     24.250675   22.699025   23.049296 H          1 MOL1         0.3769
      71    C21     21.817428   23.542980   22.199914 C.3        1 MOL1         0.1053
      72    H34     21.768947   22.642586   22.826471 H          1 MOL1         0.0783
      73    O18     21.523022   24.697723   22.992079 O.3        1 MOL1        -0.5519
      74    H35     22.307423   24.820394   23.571205 H          1 MOL1         0.3769
      75    C22     20.773751   23.395397   21.062372 C.3        1 MOL1         0.1018
      76    H36     20.679735   24.359809   20.545960 H          1 MOL1         0.0783
      77    C23     21.180522   22.308541   20.028903 C.3        1 MOL1         0.1043
      78    H37     21.137896   21.328268   20.519958 H          1 MOL1         0.0783
      79    O19     22.535294   22.576600   19.593574 O.3        1 MOL1        -0.3740
      80    C24     20.273848   22.221424   18.773880 C.3        1 MOL1         0.0138
      81    H38     19.467701   21.505241   18.974451 H          1 MOL1         0.0794
      82    H39     20.862067   21.796308   17.949608 H          1 MOL1         0.0794
      83    O20     19.719848   23.486476   18.386795 O.3        1 MOL1        -0.5486
      84    H40     19.060004   23.737812   19.074307 H          1 MOL1         0.3769
      85    C25     25.164035   17.624053   21.963350 C.3        1 MOL1         0.2972
      86    H41     25.840738   16.771176   22.101973 H          1 MOL1         0.0751
      87    O21     23.783294   17.220530   21.991598 O.3        1 MOL1        -0.3740
      88    C26     25.371043   18.649271   23.103200 C.3        1 MOL1         0.1003
      89    H42     26.408056   19.005294   23.049303 H          1 MOL1         0.0783
      90    O22     25.143890   18.027089   24.378150 O.3        1 MOL1        -0.5519
      91    H43     24.482264   17.307221   24.229695 H          1 MOL1         0.3769
      92    C27     24.433531   19.864862   22.918787 C.3        1 MOL1         0.1053
      93    H44     23.399346   19.524843   23.069920 H          1 MOL1         0.0783
      94    O23     24.755903   20.873095   23.883774 O.3        1 MOL1        -0.5519
      95    H45     24.812606   20.395186   24.740783 H          1 MOL1         0.3769
      96    C28     24.544157   20.454927   21.492473 C.3        1 MOL1         0.1018
      97    H46     25.471798   21.038689   21.425187 H          1 MOL1         0.0783
      98    C29     24.506178   19.366927   20.381453 C.3        1 MOL1         0.1043
      99    H47     23.481971   18.978019   20.334693 H          1 MOL1         0.0783
     100    O24     25.414939   18.282061   20.704872 O.3        1 MOL1        -0.3740
     101    C30     24.853418   19.893154   18.969034 C.3        1 MOL1         0.0138
     102    H48     24.013717   20.503607   18.609940 H          1 MOL1         0.0794
     103    H49     24.942092   19.035789   18.288572 H          1 MOL1         0.0794
     104    O25     26.061574   20.664622   18.961155 O.3        1 MOL1        -0.5486
     105    H50     26.255217   20.903911   18.028733 H          1 MOL1         0.3769
     106    C31     21.338931   13.901823   21.422571 C.3        1 MOL1         0.2972
     107    H51     20.958312   12.891678   21.224523 H          1 MOL1         0.0751
     108    O26     20.270108   14.845231   21.625796 O.3        1 MOL1        -0.3740
     109    C32     22.206916   13.889982   22.704703 C.3        1 MOL1         0.1003
     110    H52     23.040645   13.196207   22.535573 H          1 MOL1         0.0783
     111    O27     21.437112   13.441124   23.831504 O.3        1 MOL1        -0.5519
     112    H53     20.491702   13.665957   23.642367 H          1 MOL1         0.3769
     113    C33     22.797742   15.292171   22.975264 C.3        1 MOL1         0.1053
     114    H54     21.969945   15.972841   23.217055 H          1 MOL1         0.0783
     115    O28     23.709870   15.226858   24.077133 O.3        1 MOL1        -0.5519
     116    H55     23.239864   14.703157   24.763792 H          1 MOL1         0.3769
     117    C34     23.520090   15.834947   21.719797 C.3        1 MOL1         0.1018
     118    H56     24.442110   15.258029   21.570022 H          1 MOL1         0.0783
     119    C35     22.632357   15.732633   20.446189 C.3        1 MOL1         0.1043
     120    H57     21.780440   16.411455   20.568077 H          1 MOL1         0.0783
     121    O29     22.144838   14.371565   20.319188 O.3        1 MOL1        -0.3740
     122    C36     23.331820   16.130439   19.120914 C.3        1 MOL1         0.0138
     123    H58     23.200330   17.208673   18.967271 H          1 MOL1         0.0794
     124    H59     22.816188   15.631187   18.289909 H          1 MOL1         0.0794
     125    O30     24.727472   15.809342   19.099309 O.3        1 MOL1        -0.5486
     126    H60     25.189459   16.531697   19.584837 H          1 MOL1         0.3769
     127    C1      20.223618   18.802686   19.936710 C.2        1 MOL1         0.6173
     128    O1      21.223397   18.858076   19.246783 O.co2      1 MOL1        -0.6755
     129    O2      19.095842   18.879958   19.486423 O.co2      1 MOL1        -0.6755
     130    C2      20.418118   18.590244   21.396538 C.2        1 MOL1        -0.1504
     131    H1      21.450022   18.546148   21.732933 H          1 MOL1         0.0814
     132    C3      19.408991   18.445399   22.284477 C.2        1 MOL1        -0.1394
     133    H2      18.370272   18.490002   21.963337 H          1 MOL1         0.0817
     134    C4      19.623893   18.205024   23.763571 C.3        1 MOL1        -0.1849
     135    H3      20.654682   17.878533   23.954680 H          1 MOL1         0.0736
     136    H4      18.975238   17.382816   24.092244 H          1 MOL1         0.0736
     137    C5      19.314993   19.458180   24.609857 C.3        1 MOL1        -0.1866
     138    H5      18.280518   19.779162   24.427536 H          1 MOL1         0.0738
     139    H6      19.379757   19.198415   25.675033 H          1 MOL1         0.0738
     140    C6      20.285808   20.620846   24.314125 C.3        1 MOL1        -0.2879
     141    H7      20.219075   20.924865   23.262769 H          1 MOL1         0.0750
     142    H8      20.048382   21.492223   24.936980 H          1 MOL1         0.0750
     143    H9      21.323689   20.327749   24.518083 H          1 MOL1         0.0750
@<TRIPOS>BOND
    1     1     2    1
    2     1     3    1
    3     1     4    1
    4     4     5    1
    5     4     6    1
    6     6     7    1
    7     4     8    1
    8     8     9    1
    9     8    10    1
   10    10    11    1
   11     8    12    1
   12    12    13    1
   13    12    14    1
   14    14    15    1
   15     1    16    1
   16    14    16    1
   17    14    17    1
   18    17    18    1
   19    17    19    1
   20    17    20    1
   21    20    21    1
   22    22    23    1
   23    22    24    1
   24    22    25    1
   25    25    26    1
   26    25    27    1
   27    27    28    1
   28    25    29    1
   29    29    30    1
   30    29    31    1
   31    31    32    1
   32     3    33    1
   33    29    33    1
   34    33    34    1
   35    33    35    1
   36    35    36    1
   37    22    37    1
   38    35    37    1
   39    35    38    1
   40    38    39    1
   41    38    40    1
   42    38    41    1
   43    41    42    1
   44    43    44    1
   45    43    45    1
   46    43    46    1
   47    46    47    1
   48    46    48    1
   49    48    49    1
   50    46    50    1
   51    50    51    1
   52    50    52    1
   53    52    53    1
   54    24    54    1
   55    50    54    1
   56    54    55    1
   57    54    56    1
   58    56    57    1
   59    43    58    1
   60    56    58    1
   61    56    59    1
   62    59    60    1
   63    59    61    1
   64    59    62    1
   65    62    63    1
   66    64    65    1
   67    64    66    1
   68    64    67    1
   69    67    68    1
   70    67    69    1
   71    69    70    1
   72    67    71    1
   73    71    72    1
   74    71    73    1
   75    73    74    1
   76    45    75    1
   77    71    75    1
   78    75    76    1
   79    75    77    1
   80    77    78    1
   81    64    79    1
   82    77    79    1
   83    77    80    1
   84    80    81    1
   85    80    82    1
   86    80    83    1
   87    83    84    1
   88    85    86    1
   89    85    87    1
   90    85    88    1
   91    88    89    1
   92    88    90    1
   93    90    91    1
   94    88    92    1
   95    92    93    1
   96    92    94    1
   97    94    95    1
   98    66    96    1
   99    92    96    1
  100    96    97    1
  101    96    98    1
  102    98    99    1
  103    85   100    1
  104    98   100    1
  105    98   101    1
  106   101   102    1
  107   101   103    1
  108   101   104    1
  109   104   105    1
  110   106   107    1
  111    12   108    1
  112   106   108    1
  113   106   109    1
  114   109   110    1
  115   109   111    1
  116   111   112    1
  117   109   113    1
  118   113   114    1
  119   113   115    1
  120   115   116    1
  121    87   117    1
  122   113   117    1
  123   117   118    1
  124   117   119    1
  125   119   120    1
  126   106   121    1
  127   119   121    1
  128   119   122    1
  129   122   123    1
  130   122   124    1
  131   122   125    1
  132   125   126    1
  133   127   128    1
  134   127   129    2
  135   127   130    1
  136   130   131    1
  137   130   132    2
  138   132   133    1
  139   132   134    1
  140   134   135    1
  141   134   136    1
  142   134   137    1
  143   137   138    1
  144   137   139    1
  145   137   140    1
  146   140   141    1
  147   140   142    1
  148   140   143    1
@<TRIPOS>SUBSTRUCTURE
       1 MOL1            1 RESIDUE      1      MOL     
       2 MOL1          143 RESIDUE      1      MOL     
@<SCITEGIC>MOL_PROPERTY
feprocess Rank
SciTegic.value.IntegerValue
154

@<SCITEGIC>MOL_PROPERTY
Conf_Id
SciTegic.value.IntegerValue
560

@<SCITEGIC>MOL_PROPERTY
Probability
SciTegic.value.DoubleValue
0.00

@<SCITEGIC>MOL_PROPERTY
G
SciTegic.value.DoubleValue
503.910

@<SCITEGIC>MOL_PROPERTY
E
SciTegic.value.DoubleValue
323.421

@<SCITEGIC>MOL_PROPERTY
-TS
SciTegic.value.DoubleValue
180.489

@<SCITEGIC>MOL_PROPERTY
U+W
SciTegic.value.DoubleValue
197.333

@<SCITEGIC>MOL_PROPERTY
U
SciTegic.value.DoubleValue
263.750

@<SCITEGIC>MOL_PROPERTY
W
SciTegic.value.DoubleValue
-66.418

@<SCITEGIC>MOL_PROPERTY
W(PB)
SciTegic.value.DoubleValue
-72.305

@<SCITEGIC>MOL_PROPERTY
W(SA)
SciTegic.value.DoubleValue
5.887

@<SCITEGIC>MOL_PROPERTY
Valence
SciTegic.value.DoubleValue
150.052

@<SCITEGIC>MOL_PROPERTY
Coulomb
SciTegic.value.DoubleValue
143.464

@<SCITEGIC>MOL_PROPERTY
VdW
SciTegic.value.DoubleValue
-29.765

@<SCITEGIC>MOL_PROPERTY
VdW6
SciTegic.value.DoubleValue
-183.128

@<SCITEGIC>MOL_PROPERTY
VdW12
SciTegic.value.DoubleValue
153.362

@<SCITEGIC>MOL_PROPERTY
Bond
SciTegic.value.DoubleValue
4.294

@<SCITEGIC>MOL_PROPERTY
Angle
SciTegic.value.DoubleValue
13.075

@<SCITEGIC>MOL_PROPERTY
Pdih
SciTegic.value.DoubleValue
132.680

@<SCITEGIC>MOL_PROPERTY
Idih
SciTegic.value.DoubleValue
0.003

@<SCITEGIC>MOL_PROPERTY
Tether
SciTegic.value.DoubleValue
0.000

@<TRIPOS>MOLECULE
CD_guest-s19_fast_vm2_rndm.mol2 : feprocess host+ligand conformer 155
         143         148           2
SMALL
USER_CHARGES
 
@<TRIPOS>ATOM
       1    C1      16.246290   15.258316   21.917605 C.3        1 MOL1         0.2972
       2    H1      15.153459   15.277112   21.863239 H          1 MOL1         0.0751
       3    O1      16.813130   16.579159   21.780715 O.3        1 MOL1        -0.3740
       4    C2      16.673791   14.638807   23.266779 C.3        1 MOL1         0.1003
       5    H2      16.297914   13.607560   23.282370 H          1 MOL1         0.0783
       6    O2      16.110581   15.353518   24.377369 O.3        1 MOL1        -0.5519
       7    H3      16.354553   16.316073   24.271275 H          1 MOL1         0.3769
       8    C3      18.210034   14.581346   23.376073 C.3        1 MOL1         0.1053
       9    H4      18.579271   15.613526   23.423466 H          1 MOL1         0.0783
      10    O3      18.564236   13.887171   24.577364 O.3        1 MOL1        -0.5519
      11    H5      17.998695   14.286421   25.275285 H          1 MOL1         0.3769
      12    C4      18.863426   13.887336   22.151171 C.3        1 MOL1         0.1018
      13    H6      18.782257   12.802191   22.293238 H          1 MOL1         0.0783
      14    C5      18.218329   14.297354   20.781982 C.3        1 MOL1         0.1043
      15    H7      18.636718   15.267892   20.499074 H          1 MOL1         0.0783
      16    O4      16.775620   14.415332   20.878768 O.3        1 MOL1        -0.3740
      17    C6      18.466159   13.305736   19.613524 C.3        1 MOL1         0.0138
      18    H8      19.475007   13.442038   19.211842 H          1 MOL1         0.0794
      19    H9      17.775068   13.555952   18.797261 H          1 MOL1         0.0794
      20    O5      18.279211   11.941367   20.009306 O.3        1 MOL1        -0.5486
      21    H10     18.363651   11.383595   19.205263 H          1 MOL1         0.3769
      22    C7      15.557785   20.260961   20.099284 C.3        1 MOL1         0.2972
      23    H11     15.159169   20.972391   19.366977 H          1 MOL1         0.0751
      24    O6      16.062275   20.939028   21.262734 O.3        1 MOL1        -0.3740
      25    C8      14.424568   19.298415   20.535074 C.3        1 MOL1         0.1003
      26    H12     13.999008   18.873124   19.616761 H          1 MOL1         0.0783
      27    O7      13.402457   20.023452   21.235420 O.3        1 MOL1        -0.5519
      28    H13     13.871068   20.549001   21.923768 H          1 MOL1         0.3769
      29    C9      14.926104   18.120768   21.408899 C.3        1 MOL1         0.1053
      30    H14     15.183704   18.513964   22.401162 H          1 MOL1         0.0783
      31    O8      13.845169   17.188595   21.514680 O.3        1 MOL1        -0.5519
      32    H15     13.071431   17.722434   21.800373 H          1 MOL1         0.3769
      33    C10     16.197072   17.452993   20.806388 C.3        1 MOL1         0.1018
      34    H16     15.921546   16.898632   19.900225 H          1 MOL1         0.0783
      35    C11     17.247858   18.534839   20.442703 C.3        1 MOL1         0.1043
      36    H17     17.553036   19.040862   21.367614 H          1 MOL1         0.0783
      37    O9      16.641277   19.488722   19.538467 O.3        1 MOL1        -0.3740
      38    C12     18.535962   17.983188   19.788187 C.3        1 MOL1         0.0138
      39    H18     19.109777   17.453343   20.559383 H          1 MOL1         0.0794
      40    H19     19.150355   18.829913   19.455469 H          1 MOL1         0.0794
      41    O10     18.265561   17.108127   18.686514 O.3        1 MOL1        -0.5486
      42    H20     17.658344   16.409039   19.005099 H          1 MOL1         0.3769
      43    C13     18.389249   24.344517   21.737372 C.3        1 MOL1         0.2972
      44    H21     18.798290   25.360564   21.805677 H          1 MOL1         0.0751
      45    O11     19.392820   23.348289   22.018957 O.3        1 MOL1        -0.3740
      46    C14     17.245735   24.177156   22.762103 C.3        1 MOL1         0.1003
      47    H22     16.464088   24.910179   22.525219 H          1 MOL1         0.0783
      48    O12     17.762939   24.430623   24.079376 O.3        1 MOL1        -0.5519
      49    H23     18.657348   24.015669   24.116142 H          1 MOL1         0.3769
      50    C15     16.629070   22.760572   22.655110 C.3        1 MOL1         0.1053
      51    H24     17.394175   22.054455   22.992130 H          1 MOL1         0.0783
      52    O13     15.475446   22.639156   23.496042 O.3        1 MOL1        -0.5519
      53    H25     15.569135   21.750882   23.933676 H          1 MOL1         0.3769
      54    C16     16.253899   22.373287   21.198746 C.3        1 MOL1         0.1018
      55    H26     15.317567   22.880427   20.932664 H          1 MOL1         0.0783
      56    C17     17.374558   22.753187   20.171640 C.3        1 MOL1         0.1043
      57    H27     18.201289   22.041267   20.294382 H          1 MOL1         0.0783
      58    O14     17.855046   24.098092   20.426317 O.3        1 MOL1        -0.3740
      59    C18     16.956570   22.738065   18.677505 C.3        1 MOL1         0.0138
      60    H28     16.958889   21.705885   18.307087 H          1 MOL1         0.0794
      61    H29     17.718940   23.276475   18.098625 H          1 MOL1         0.0794
      62    O15     15.672640   23.337560   18.466155 O.3        1 MOL1        -0.5486
      63    H30     15.524925   23.394313   17.496898 H          1 MOL1         0.3769
      64    C19     23.520327   22.742748   21.716089 C.3        1 MOL1         0.2972
      65    H31     24.601344   22.900408   21.608561 H          1 MOL1         0.0751
      66    O16     23.199973   21.341424   21.792062 O.3        1 MOL1        -0.3740
      67    C20     23.023059   23.426788   23.013583 C.3        1 MOL1         0.1003
      68    H32     23.272870   24.493216   22.940374 H          1 MOL1         0.0783
      69    O17     23.684188   22.863050   24.157095 O.3        1 MOL1        -0.5519
      70    H33     23.977380   21.957607   23.894269 H          1 MOL1         0.3769
      71    C21     21.487656   23.306435   23.159120 C.3        1 MOL1         0.1053
      72    H34     21.242021   22.251646   23.335553 H          1 MOL1         0.0783
      73    O18     21.050470   24.094922   24.271117 O.3        1 MOL1        -0.5519
      74    H35     21.661679   23.860364   25.004171 H          1 MOL1         0.3769
      75    C22     20.764364   23.764864   21.869157 C.3        1 MOL1         0.1018
      76    H36     20.859239   24.855806   21.789664 H          1 MOL1         0.0783
      77    C23     21.369525   23.091740   20.603942 C.3        1 MOL1         0.1043
      78    H37     21.154322   22.017895   20.667164 H          1 MOL1         0.0783
      79    O19     22.805404   23.297982   20.592368 O.3        1 MOL1        -0.3740
      80    C24     20.812135   23.587874   19.245392 C.3        1 MOL1         0.0138
      81    H38     19.924542   22.995802   18.994188 H          1 MOL1         0.0794
      82    H39     21.557199   23.381842   18.465290 H          1 MOL1         0.0794
      83    O20     20.479394   24.979674   19.245342 O.3        1 MOL1        -0.5486
      84    H40     19.552183   25.045039   19.569533 H          1 MOL1         0.3769
      85    C25     24.749162   17.613671   20.750429 C.3        1 MOL1         0.2972
      86    H41     25.363017   16.804527   20.334653 H          1 MOL1         0.0751
      87    O21     23.580348   17.105427   21.424089 O.3        1 MOL1        -0.3740
      88    C26     25.578844   18.417751   21.780694 C.3        1 MOL1         0.1003
      89    H42     26.456314   18.824054   21.261127 H          1 MOL1         0.0783
      90    O22     26.010274   17.560625   22.849949 O.3        1 MOL1        -0.5519
      91    H43     25.315037   16.864801   22.957961 H          1 MOL1         0.3769
      92    C27     24.755583   19.602061   22.334637 C.3        1 MOL1         0.1053
      93    H44     23.928672   19.180325   22.917117 H          1 MOL1         0.0783
      94    O23     25.579043   20.417049   23.175131 O.3        1 MOL1        -0.5519
      95    H45     26.048382   19.783787   23.762277 H          1 MOL1         0.3769
      96    C28     24.157724   20.452410   21.187487 C.3        1 MOL1         0.1018
      97    H46     24.973894   20.996344   20.693916 H          1 MOL1         0.0783
      98    C29     23.422456   19.573054   20.137835 C.3        1 MOL1         0.1043
      99    H47     22.537639   19.137942   20.619379 H          1 MOL1         0.0783
     100    O24     24.310109   18.510246   19.707455 O.3        1 MOL1        -0.3740
     101    C30     22.926552   20.327640   18.877203 C.3        1 MOL1         0.0138
     102    H48     21.917523   20.709539   19.071759 H          1 MOL1         0.0794
     103    H49     22.835670   19.607997   18.052540 H          1 MOL1         0.0794
     104    O25     23.784341   21.406990   18.490206 O.3        1 MOL1        -0.5486
     105    H50     23.628889   22.142919   19.127177 H          1 MOL1         0.3769
     106    C31     21.207000   13.619846   21.394636 C.3        1 MOL1         0.2972
     107    H51     20.862954   12.605300   21.155127 H          1 MOL1         0.0751
     108    O26     20.246401   14.311438   22.213832 O.3        1 MOL1        -0.3740
     109    C32     22.539883   13.557043   22.188465 C.3        1 MOL1         0.1003
     110    H52     23.254819   12.979715   21.587905 H          1 MOL1         0.0783
     111    O27     22.336136   12.900837   23.448674 O.3        1 MOL1        -0.5519
     112    H53     21.512431   13.289001   23.824732 H          1 MOL1         0.3769
     113    C33     23.135597   14.969206   22.417101 C.3        1 MOL1         0.1053
     114    H54     22.477009   15.515398   23.106843 H          1 MOL1         0.0783
     115    O28     24.445917   14.852014   22.983203 O.3        1 MOL1        -0.5519
     116    H55     24.353621   14.204091   23.716320 H          1 MOL1         0.3769
     117    C34     23.203582   15.758083   21.089485 C.3        1 MOL1         0.1018
     118    H56     23.940145   15.274400   20.434263 H          1 MOL1         0.0783
     119    C35     21.822337   15.766913   20.384734 C.3        1 MOL1         0.1043
     120    H57     21.100024   16.275132   21.036700 H          1 MOL1         0.0783
     121    O29     21.422772   14.390947   20.191615 O.3        1 MOL1        -0.3740
     122    C36     21.781284   16.476931   19.007710 C.3        1 MOL1         0.0138
     123    H58     21.610562   17.547886   19.170884 H          1 MOL1         0.0794
     124    H59     20.914262   16.101294   18.447707 H          1 MOL1         0.0794
     125    O30     22.977298   16.291283   18.242840 O.3        1 MOL1        -0.5486
     126    H60     23.622320   16.965282   18.558677 H          1 MOL1         0.3769
     127    C1      17.057022   19.247859   24.339000 C.2        1 MOL1         0.6173
     128    O1      16.771582   18.065637   24.369286 O.co2      1 MOL1        -0.6755
     129    O2      16.257330   20.134974   24.574890 O.co2      1 MOL1        -0.6755
     130    C2      18.441353   19.652415   23.972043 C.2        1 MOL1        -0.1504
     131    H1      18.662190   20.712951   24.045584 H          1 MOL1         0.0814
     132    C3      19.405806   18.794208   23.571282 C.2        1 MOL1        -0.1394
     133    H2      19.211935   17.726901   23.493444 H          1 MOL1         0.0817
     134    C4      20.806156   19.242440   23.218150 C.3        1 MOL1        -0.1849
     135    H3      20.750799   20.137821   22.586510 H          1 MOL1         0.0736
     136    H4      21.314848   18.474062   22.621892 H          1 MOL1         0.0736
     137    C5      21.629668   19.555777   24.486793 C.3        1 MOL1        -0.1866
     138    H5      22.503358   20.161947   24.222141 H          1 MOL1         0.0738
     139    H6      21.034924   20.170454   25.176220 H          1 MOL1         0.0738
     140    C6      22.097242   18.270978   25.201780 C.3        1 MOL1        -0.2879
     141    H7      22.727975   17.661343   24.541779 H          1 MOL1         0.0750
     142    H8      22.682525   18.518209   26.096494 H          1 MOL1         0.0750
     143    H9      21.239387   17.661576   25.514522 H          1 MOL1         0.0750
@<TRIPOS>BOND
    1     1     2    1
    2     1     3    1
    3     1     4    1
    4     4     5    1
    5     4     6    1
    6     6     7    1
    7     4     8    1
    8     8     9    1
    9     8    10    1
   10    10    11    1
   11     8    12    1
   12    12    13    1
   13    12    14    1
   14    14    15    1
   15     1    16    1
   16    14    16    1
   17    14    17    1
   18    17    18    1
   19    17    19    1
   20    17    20    1
   21    20    21    1
   22    22    23    1
   23    22    24    1
   24    22    25    1
   25    25    26    1
   26    25    27    1
   27    27    28    1
   28    25    29    1
   29    29    30    1
   30    29    31    1
   31    31    32    1
   32     3    33    1
   33    29    33    1
   34    33    34    1
   35    33    35    1
   36    35    36    1
   37    22    37    1
   38    35    37    1
   39    35    38    1
   40    38    39    1
   41    38    40    1
   42    38    41    1
   43    41    42    1
   44    43    44    1
   45    43    45    1
   46    43    46    1
   47    46    47    1
   48    46    48    1
   49    48    49    1
   50    46    50    1
   51    50    51    1
   52    50    52    1
   53    52    53    1
   54    24    54    1
   55    50    54    1
   56    54    55    1
   57    54    56    1
   58    56    57    1
   59    43    58    1
   60    56    58    1
   61    56    59    1
   62    59    60    1
   63    59    61    1
   64    59    62    1
   65    62    63    1
   66    64    65    1
   67    64    66    1
   68    64    67    1
   69    67    68    1
   70    67    69    1
   71    69    70    1
   72    67    71    1
   73    71    72    1
   74    71    73    1
   75    73    74    1
   76    45    75    1
   77    71    75    1
   78    75    76    1
   79    75    77    1
   80    77    78    1
   81    64    79    1
   82    77    79    1
   83    77    80    1
   84    80    81    1
   85    80    82    1
   86    80    83    1
   87    83    84    1
   88    85    86    1
   89    85    87    1
   90    85    88    1
   91    88    89    1
   92    88    90    1
   93    90    91    1
   94    88    92    1
   95    92    93    1
   96    92    94    1
   97    94    95    1
   98    66    96    1
   99    92    96    1
  100    96    97    1
  101    96    98    1
  102    98    99    1
  103    85   100    1
  104    98   100    1
  105    98   101    1
  106   101   102    1
  107   101   103    1
  108   101   104    1
  109   104   105    1
  110   106   107    1
  111    12   108    1
  112   106   108    1
  113   106   109    1
  114   109   110    1
  115   109   111    1
  116   111   112    1
  117   109   113    1
  118   113   114    1
  119   113   115    1
  120   115   116    1
  121    87   117    1
  122   113   117    1
  123   117   118    1
  124   117   119    1
  125   119   120    1
  126   106   121    1
  127   119   121    1
  128   119   122    1
  129   122   123    1
  130   122   124    1
  131   122   125    1
  132   125   126    1
  133   127   128    1
  134   127   129    2
  135   127   130    1
  136   130   131    1
  137   130   132    2
  138   132   133    1
  139   132   134    1
  140   134   135    1
  141   134   136    1
  142   134   137    1
  143   137   138    1
  144   137   139    1
  145   137   140    1
  146   140   141    1
  147   140   142    1
  148   140   143    1
@<TRIPOS>SUBSTRUCTURE
       1 MOL1            1 RESIDUE      1      MOL     
       2 MOL1          143 RESIDUE      1      MOL     
@<SCITEGIC>MOL_PROPERTY
feprocess Rank
SciTegic.value.IntegerValue
155

@<SCITEGIC>MOL_PROPERTY
Conf_Id
SciTegic.value.IntegerValue
367

@<SCITEGIC>MOL_PROPERTY
Probability
SciTegic.value.DoubleValue
0.00

@<SCITEGIC>MOL_PROPERTY
G
SciTegic.value.DoubleValue
504.025

@<SCITEGIC>MOL_PROPERTY
E
SciTegic.value.DoubleValue
322.421

@<SCITEGIC>MOL_PROPERTY
-TS
SciTegic.value.DoubleValue
181.604

@<SCITEGIC>MOL_PROPERTY
U+W
SciTegic.value.DoubleValue
196.332

@<SCITEGIC>MOL_PROPERTY
U
SciTegic.value.DoubleValue
273.019

@<SCITEGIC>MOL_PROPERTY
W
SciTegic.value.DoubleValue
-76.686

@<SCITEGIC>MOL_PROPERTY
W(PB)
SciTegic.value.DoubleValue
-82.624

@<SCITEGIC>MOL_PROPERTY
W(SA)
SciTegic.value.DoubleValue
5.937

@<SCITEGIC>MOL_PROPERTY
Valence
SciTegic.value.DoubleValue
148.440

@<SCITEGIC>MOL_PROPERTY
Coulomb
SciTegic.value.DoubleValue
149.644

@<SCITEGIC>MOL_PROPERTY
VdW
SciTegic.value.DoubleValue
-25.065

@<SCITEGIC>MOL_PROPERTY
VdW6
SciTegic.value.DoubleValue
-179.306

@<SCITEGIC>MOL_PROPERTY
VdW12
SciTegic.value.DoubleValue
154.241

@<SCITEGIC>MOL_PROPERTY
Bond
SciTegic.value.DoubleValue
4.999

@<SCITEGIC>MOL_PROPERTY
Angle
SciTegic.value.DoubleValue
16.092

@<SCITEGIC>MOL_PROPERTY
Pdih
SciTegic.value.DoubleValue
127.347

@<SCITEGIC>MOL_PROPERTY
Idih
SciTegic.value.DoubleValue
0.001

@<SCITEGIC>MOL_PROPERTY
Tether
SciTegic.value.DoubleValue
0.000

@<TRIPOS>MOLECULE
CD_guest-s19_fast_vm2_rndm.mol2 : feprocess host+ligand conformer 156
         143         148           2
SMALL
USER_CHARGES
 
@<TRIPOS>ATOM
       1    C1      16.268239   14.960350   21.944824 C.3        1 MOL1         0.2972
       2    H1      15.306939   14.604217   22.335266 H          1 MOL1         0.0751
       3    O1      16.438512   16.376680   22.139406 O.3        1 MOL1        -0.3740
       4    C2      17.440123   14.260369   22.674464 C.3        1 MOL1         0.1003
       5    H2      17.397340   13.191514   22.429598 H          1 MOL1         0.0783
       6    O2      17.325399   14.426380   24.097149 O.3        1 MOL1        -0.5519
       7    H3      17.762334   15.289910   24.324142 H          1 MOL1         0.3769
       8    C3      18.779535   14.831744   22.151930 C.3        1 MOL1         0.1053
       9    H4      18.800891   15.899768   22.392822 H          1 MOL1         0.0783
      10    O3      19.888890   14.191583   22.789746 O.3        1 MOL1        -0.5519
      11    H5      20.186678   14.851701   23.471220 H          1 MOL1         0.3769
      12    C4      18.888682   14.741288   20.610096 C.3        1 MOL1         0.1018
      13    H6      19.136137   13.712466   20.319064 H          1 MOL1         0.0783
      14    C5      17.588120   15.211267   19.893189 C.3        1 MOL1         0.1043
      15    H7      17.546495   16.306371   19.956625 H          1 MOL1         0.0783
      16    O4      16.407889   14.663270   20.538502 O.3        1 MOL1        -0.3740
      17    C6      17.548081   14.850701   18.389832 C.3        1 MOL1         0.0138
      18    H8      18.286779   15.471896   17.865250 H          1 MOL1         0.0794
      19    H9      16.559216   15.115423   17.992328 H          1 MOL1         0.0794
      20    O5      17.824772   13.463865   18.158219 O.3        1 MOL1        -0.5486
      21    H10     17.712955   13.293690   17.197465 H          1 MOL1         0.3769
      22    C7      14.922815   20.115168   22.234177 C.3        1 MOL1         0.2972
      23    H11     14.372487   21.062049   22.277572 H          1 MOL1         0.0751
      24    O6      16.321992   20.328439   21.922860 O.3        1 MOL1        -0.3740
      25    C8      14.856711   19.404627   23.605220 C.3        1 MOL1         0.1003
      26    H12     13.811600   19.129292   23.796157 H          1 MOL1         0.0783
      27    O7      15.314124   20.288686   24.640339 O.3        1 MOL1        -0.5519
      28    H13     16.271616   20.427964   24.480407 H          1 MOL1         0.3769
      29    C9      15.703070   18.109612   23.540445 C.3        1 MOL1         0.1053
      30    H14     16.744140   18.402009   23.358794 H          1 MOL1         0.0783
      31    O8      15.643401   17.382210   24.771678 O.3        1 MOL1        -0.5519
      32    H15     16.567076   17.055256   24.925387 H          1 MOL1         0.3769
      33    C10     15.279568   17.195701   22.361222 C.3        1 MOL1         0.1018
      34    H16     14.404090   16.609221   22.666245 H          1 MOL1         0.0783
      35    C11     15.001180   17.970534   21.035284 C.3        1 MOL1         0.1043
      36    H17     15.967124   18.195169   20.577538 H          1 MOL1         0.0783
      37    O9      14.316624   19.224488   21.274666 O.3        1 MOL1        -0.3740
      38    C12     14.186465   17.175199   19.986425 C.3        1 MOL1         0.0138
      39    H18     14.815517   16.378244   19.571622 H          1 MOL1         0.0794
      40    H19     13.944761   17.852403   19.156449 H          1 MOL1         0.0794
      41    O10     12.981496   16.619262   20.527743 O.3        1 MOL1        -0.5486
      42    H20     13.219078   15.799222   21.009542 H          1 MOL1         0.3769
      43    C13     18.729543   22.945971   19.750155 C.3        1 MOL1         0.2972
      44    H21     19.209910   23.532729   18.956710 H          1 MOL1         0.0751
      45    O11     19.431993   23.102725   21.004408 O.3        1 MOL1        -0.3740
      46    C14     17.271662   23.427642   19.943890 C.3        1 MOL1         0.1003
      47    H22     16.763370   23.327038   18.975950 H          1 MOL1         0.0783
      48    O12     17.256779   24.804763   20.348021 O.3        1 MOL1        -0.5519
      49    H23     17.920974   24.880822   21.070935 H          1 MOL1         0.3769
      50    C15     16.505004   22.564750   20.976728 C.3        1 MOL1         0.1053
      51    H24     16.921006   22.781310   21.969995 H          1 MOL1         0.0783
      52    O13     15.127227   22.948320   20.932827 O.3        1 MOL1        -0.5519
      53    H25     15.131479   23.930918   20.954039 H          1 MOL1         0.3769
      54    C16     16.667839   21.039147   20.714735 C.3        1 MOL1         0.1018
      55    H26     16.034662   20.731030   19.872499 H          1 MOL1         0.0783
      56    C17     18.149520   20.669556   20.414884 C.3        1 MOL1         0.1043
      57    H27     18.724046   20.789701   21.342254 H          1 MOL1         0.0783
      58    O14     18.682991   21.548311   19.394627 O.3        1 MOL1        -0.3740
      59    C18     18.368224   19.216114   19.937405 C.3        1 MOL1         0.0138
      60    H28     18.107698   18.527426   20.752323 H          1 MOL1         0.0794
      61    H29     19.435279   19.077467   19.728415 H          1 MOL1         0.0794
      62    O15     17.602685   18.924315   18.764469 O.3        1 MOL1        -0.5486
      63    H30     17.843346   19.606099   18.100430 H          1 MOL1         0.3769
      64    C19     23.604401   22.700936   21.647451 C.3        1 MOL1         0.2972
      65    H31     24.026389   23.186981   20.761146 H          1 MOL1         0.0751
      66    O16     24.713800   22.144152   22.405839 O.3        1 MOL1        -0.3740
      67    C20     22.867847   23.782797   22.501877 C.3        1 MOL1         0.1003
      68    H32     23.189329   24.758718   22.115802 H          1 MOL1         0.0783
      69    O17     23.188058   23.703858   23.902003 O.3        1 MOL1        -0.5519
      70    H33     23.494222   22.778004   24.076041 H          1 MOL1         0.3769
      71    C21     21.324090   23.710423   22.366155 C.3        1 MOL1         0.1053
      72    H34     20.977413   22.905778   23.024590 H          1 MOL1         0.0783
      73    O18     20.764585   24.956667   22.793977 O.3        1 MOL1        -0.5519
      74    H35     21.124875   25.102881   23.695765 H          1 MOL1         0.3769
      75    C22     20.855153   23.369062   20.929345 C.3        1 MOL1         0.1018
      76    H36     21.033480   24.248869   20.298287 H          1 MOL1         0.0783
      77    C23     21.605244   22.126922   20.351724 C.3        1 MOL1         0.1043
      78    H37     20.902721   21.288701   20.320011 H          1 MOL1         0.0783
      79    O19     22.672932   21.689502   21.223691 O.3        1 MOL1        -0.3740
      80    C24     22.130313   22.324133   18.903089 C.3        1 MOL1         0.0138
      81    H38     21.273815   22.277902   18.217147 H          1 MOL1         0.0794
      82    H39     22.794565   21.489018   18.646147 H          1 MOL1         0.0794
      83    O20     22.820254   23.566756   18.725529 O.3        1 MOL1        -0.5486
      84    H40     23.118925   23.612545   17.790718 H          1 MOL1         0.3769
      85    C25     24.236364   17.865967   22.684386 C.3        1 MOL1         0.2972
      86    H41     24.527153   16.851725   22.978145 H          1 MOL1         0.0751
      87    O21     23.036638   17.847222   21.882889 O.3        1 MOL1        -0.3740
      88    C26     23.980644   18.706573   23.966655 C.3        1 MOL1         0.1003
      89    H42     24.910951   18.674151   24.548540 H          1 MOL1         0.0783
      90    O22     22.930198   18.153623   24.777524 O.3        1 MOL1        -0.5519
      91    H43     22.246037   17.733476   24.192784 H          1 MOL1         0.3769
      92    C27     23.703898   20.194145   23.638701 C.3        1 MOL1         0.1053
      93    H44     22.742903   20.252468   23.114939 H          1 MOL1         0.0783
      94    O23     23.650997   20.935650   24.859318 O.3        1 MOL1        -0.5519
      95    H45     23.061440   20.413826   25.448671 H          1 MOL1         0.3769
      96    C28     24.849726   20.731479   22.740285 C.3        1 MOL1         0.1018
      97    H46     25.763910   20.639733   23.340430 H          1 MOL1         0.0783
      98    C29     25.061541   19.845192   21.481795 C.3        1 MOL1         0.1043
      99    H47     24.159250   19.866270   20.867746 H          1 MOL1         0.0783
     100    O24     25.299211   18.482253   21.913707 O.3        1 MOL1        -0.3740
     101    C30     26.242673   20.296826   20.588542 C.3        1 MOL1         0.0138
     102    H48     25.938311   21.197587   20.038447 H          1 MOL1         0.0794
     103    H49     26.441694   19.514798   19.844026 H          1 MOL1         0.0794
     104    O25     27.427705   20.570917   21.344800 O.3        1 MOL1        -0.5486
     105    H50     27.241426   21.360488   21.898891 H          1 MOL1         0.3769
     106    C31     20.985705   15.247019   19.386535 C.3        1 MOL1         0.2972
     107    H51     20.614209   14.590439   18.589447 H          1 MOL1         0.0751
     108    O26     19.914372   15.685069   20.245794 O.3        1 MOL1        -0.3740
     109    C32     22.114536   14.562053   20.202524 C.3        1 MOL1         0.1003
     110    H52     22.936864   14.378497   19.498626 H          1 MOL1         0.0783
     111    O27     21.703565   13.301819   20.753404 O.3        1 MOL1        -0.5519
     112    H53     21.034464   13.506330   21.454097 H          1 MOL1         0.3769
     113    C33     22.657654   15.494461   21.316070 C.3        1 MOL1         0.1053
     114    H54     21.878908   15.618009   22.078583 H          1 MOL1         0.0783
     115    O28     23.808525   14.863087   21.886704 O.3        1 MOL1        -0.5519
     116    H55     23.535182   13.934906   22.058232 H          1 MOL1         0.3769
     117    C34     23.015740   16.910450   20.777234 C.3        1 MOL1         0.1018
     118    H56     23.990662   16.860537   20.276994 H          1 MOL1         0.0783
     119    C35     21.952263   17.451555   19.780682 C.3        1 MOL1         0.1043
     120    H57     21.072340   17.741935   20.368230 H          1 MOL1         0.0783
     121    O29     21.575116   16.434028   18.820071 O.3        1 MOL1        -0.3740
     122    C36     22.397646   18.710223   19.004900 C.3        1 MOL1         0.0138
     123    H58     22.395014   19.548377   19.708062 H          1 MOL1         0.0794
     124    H59     21.647771   18.932307   18.233987 H          1 MOL1         0.0794
     125    O30     23.693447   18.576141   18.408238 O.3        1 MOL1        -0.5486
     126    H60     24.334979   18.379132   19.121125 H          1 MOL1         0.3769
     127    C1      19.563007   17.390421   24.373579 C.2        1 MOL1         0.6173
     128    O1      18.537366   16.895399   24.814161 O.co2      1 MOL1        -0.6755
     129    O2      20.520764   16.729019   24.012797 O.co2      1 MOL1        -0.6755
     130    C2      19.626315   18.857920   24.133396 C.2        1 MOL1        -0.1504
     131    H1      20.494405   19.211617   23.583283 H          1 MOL1         0.0814
     132    C3      18.685470   19.730864   24.557532 C.2        1 MOL1        -0.1394
     133    H2      17.835976   19.383915   25.142780 H          1 MOL1         0.0817
     134    C4      18.728610   21.217638   24.277081 C.3        1 MOL1        -0.1849
     135    H3      17.762950   21.544145   23.874490 H          1 MOL1         0.0736
     136    H4      19.466711   21.431703   23.496501 H          1 MOL1         0.0736
     137    C5      19.045693   22.048365   25.537365 C.3        1 MOL1        -0.1866
     138    H5      18.922465   23.114906   25.304235 H          1 MOL1         0.0738
     139    H6      18.320893   21.811918   26.328401 H          1 MOL1         0.0738
     140    C6      20.479147   21.810915   26.054906 C.3        1 MOL1        -0.2879
     141    H7      20.674042   22.418872   26.947372 H          1 MOL1         0.0750
     142    H8      20.635826   20.757660   26.321227 H          1 MOL1         0.0750
     143    H9      21.216550   22.086883   25.292022 H          1 MOL1         0.0750
@<TRIPOS>BOND
    1     1     2    1
    2     1     3    1
    3     1     4    1
    4     4     5    1
    5     4     6    1
    6     6     7    1
    7     4     8    1
    8     8     9    1
    9     8    10    1
   10    10    11    1
   11     8    12    1
   12    12    13    1
   13    12    14    1
   14    14    15    1
   15     1    16    1
   16    14    16    1
   17    14    17    1
   18    17    18    1
   19    17    19    1
   20    17    20    1
   21    20    21    1
   22    22    23    1
   23    22    24    1
   24    22    25    1
   25    25    26    1
   26    25    27    1
   27    27    28    1
   28    25    29    1
   29    29    30    1
   30    29    31    1
   31    31    32    1
   32     3    33    1
   33    29    33    1
   34    33    34    1
   35    33    35    1
   36    35    36    1
   37    22    37    1
   38    35    37    1
   39    35    38    1
   40    38    39    1
   41    38    40    1
   42    38    41    1
   43    41    42    1
   44    43    44    1
   45    43    45    1
   46    43    46    1
   47    46    47    1
   48    46    48    1
   49    48    49    1
   50    46    50    1
   51    50    51    1
   52    50    52    1
   53    52    53    1
   54    24    54    1
   55    50    54    1
   56    54    55    1
   57    54    56    1
   58    56    57    1
   59    43    58    1
   60    56    58    1
   61    56    59    1
   62    59    60    1
   63    59    61    1
   64    59    62    1
   65    62    63    1
   66    64    65    1
   67    64    66    1
   68    64    67    1
   69    67    68    1
   70    67    69    1
   71    69    70    1
   72    67    71    1
   73    71    72    1
   74    71    73    1
   75    73    74    1
   76    45    75    1
   77    71    75    1
   78    75    76    1
   79    75    77    1
   80    77    78    1
   81    64    79    1
   82    77    79    1
   83    77    80    1
   84    80    81    1
   85    80    82    1
   86    80    83    1
   87    83    84    1
   88    85    86    1
   89    85    87    1
   90    85    88    1
   91    88    89    1
   92    88    90    1
   93    90    91    1
   94    88    92    1
   95    92    93    1
   96    92    94    1
   97    94    95    1
   98    66    96    1
   99    92    96    1
  100    96    97    1
  101    96    98    1
  102    98    99    1
  103    85   100    1
  104    98   100    1
  105    98   101    1
  106   101   102    1
  107   101   103    1
  108   101   104    1
  109   104   105    1
  110   106   107    1
  111    12   108    1
  112   106   108    1
  113   106   109    1
  114   109   110    1
  115   109   111    1
  116   111   112    1
  117   109   113    1
  118   113   114    1
  119   113   115    1
  120   115   116    1
  121    87   117    1
  122   113   117    1
  123   117   118    1
  124   117   119    1
  125   119   120    1
  126   106   121    1
  127   119   121    1
  128   119   122    1
  129   122   123    1
  130   122   124    1
  131   122   125    1
  132   125   126    1
  133   127   128    1
  134   127   129    2
  135   127   130    1
  136   130   131    1
  137   130   132    2
  138   132   133    1
  139   132   134    1
  140   134   135    1
  141   134   136    1
  142   134   137    1
  143   137   138    1
  144   137   139    1
  145   137   140    1
  146   140   141    1
  147   140   142    1
  148   140   143    1
@<TRIPOS>SUBSTRUCTURE
       1 MOL1            1 RESIDUE      1      MOL     
       2 MOL1          143 RESIDUE      1      MOL     
@<SCITEGIC>MOL_PROPERTY
feprocess Rank
SciTegic.value.IntegerValue
156

@<SCITEGIC>MOL_PROPERTY
Conf_Id
SciTegic.value.IntegerValue
386

@<SCITEGIC>MOL_PROPERTY
Probability
SciTegic.value.DoubleValue
0.00

@<SCITEGIC>MOL_PROPERTY
G
SciTegic.value.DoubleValue
504.028

@<SCITEGIC>MOL_PROPERTY
E
SciTegic.value.DoubleValue
319.181

@<SCITEGIC>MOL_PROPERTY
-TS
SciTegic.value.DoubleValue
184.847

@<SCITEGIC>MOL_PROPERTY
U+W
SciTegic.value.DoubleValue
193.093

@<SCITEGIC>MOL_PROPERTY
U
SciTegic.value.DoubleValue
264.676

@<SCITEGIC>MOL_PROPERTY
W
SciTegic.value.DoubleValue
-71.583

@<SCITEGIC>MOL_PROPERTY
W(PB)
SciTegic.value.DoubleValue
-77.448

@<SCITEGIC>MOL_PROPERTY
W(SA)
SciTegic.value.DoubleValue
5.864

@<SCITEGIC>MOL_PROPERTY
Valence
SciTegic.value.DoubleValue
147.840

@<SCITEGIC>MOL_PROPERTY
Coulomb
SciTegic.value.DoubleValue
139.154

@<SCITEGIC>MOL_PROPERTY
VdW
SciTegic.value.DoubleValue
-22.317

@<SCITEGIC>MOL_PROPERTY
VdW6
SciTegic.value.DoubleValue
-187.415

@<SCITEGIC>MOL_PROPERTY
VdW12
SciTegic.value.DoubleValue
165.098

@<SCITEGIC>MOL_PROPERTY
Bond
SciTegic.value.DoubleValue
5.700

@<SCITEGIC>MOL_PROPERTY
Angle
SciTegic.value.DoubleValue
22.898

@<SCITEGIC>MOL_PROPERTY
Pdih
SciTegic.value.DoubleValue
119.216

@<SCITEGIC>MOL_PROPERTY
Idih
SciTegic.value.DoubleValue
0.025

@<SCITEGIC>MOL_PROPERTY
Tether
SciTegic.value.DoubleValue
0.000

@<TRIPOS>MOLECULE
CD_guest-s19_fast_vm2_rndm.mol2 : feprocess host+ligand conformer 157
         143         148           2
SMALL
USER_CHARGES
 
@<TRIPOS>ATOM
       1    C1      16.184023   15.203467   20.989231 C.3        1 MOL1         0.2972
       2    H1      15.159394   15.005023   20.649963 H          1 MOL1         0.0751
       3    O1      16.336249   16.561283   21.441408 O.3        1 MOL1        -0.3740
       4    C2      16.524075   14.276218   22.181614 C.3        1 MOL1         0.1003
       5    H2      16.397177   13.239082   21.845037 H          1 MOL1         0.0783
       6    O2      15.633036   14.535919   23.278273 O.3        1 MOL1        -0.5519
       7    H3      15.438008   15.504487   23.257801 H          1 MOL1         0.3769
       8    C3      17.993985   14.461705   22.624519 C.3        1 MOL1         0.1053
       9    H4      18.096210   15.469883   23.046835 H          1 MOL1         0.0783
      10    O3      18.323917   13.481457   23.615025 O.3        1 MOL1        -0.5519
      11    H5      17.582460   13.509045   24.259258 H          1 MOL1         0.3769
      12    C4      18.955075   14.341344   21.417818 C.3        1 MOL1         0.1018
      13    H6      18.951937   13.297159   21.078580 H          1 MOL1         0.0783
      14    C5      18.514610   15.262987   20.244530 C.3        1 MOL1         0.1043
      15    H7      18.606244   16.308398   20.570476 H          1 MOL1         0.0783
      16    O4      17.130298   14.967405   19.925480 O.3        1 MOL1        -0.3740
      17    C6      19.339920   15.119345   18.940557 C.3        1 MOL1         0.0138
      18    H8      20.207403   15.786693   19.002110 H          1 MOL1         0.0794
      19    H9      18.731658   15.476679   18.099513 H          1 MOL1         0.0794
      20    O5      19.774836   13.777615   18.692840 O.3        1 MOL1        -0.5486
      21    H10     20.601973   13.653451   19.213591 H          1 MOL1         0.3769
      22    C7      14.825124   20.384888   20.717726 C.3        1 MOL1         0.2972
      23    H11     14.225409   21.241736   20.384589 H          1 MOL1         0.0751
      24    O6      16.058589   20.796738   21.330177 O.3        1 MOL1        -0.3740
      25    C8      14.056076   19.542630   21.766297 C.3        1 MOL1         0.1003
      26    H12     13.125681   19.198132   21.296597 H          1 MOL1         0.0783
      27    O7      13.741562   20.334526   22.924027 O.3        1 MOL1        -0.5519
      28    H13     14.569492   20.811757   23.185834 H          1 MOL1         0.3769
      29    C9      14.879348   18.296221   22.177494 C.3        1 MOL1         0.1053
      30    H14     15.761263   18.637640   22.737523 H          1 MOL1         0.0783
      31    O8      14.078331   17.447161   23.007482 O.3        1 MOL1        -0.5519
      32    H15     13.670356   18.046793   23.670710 H          1 MOL1         0.3769
      33    C10     15.373832   17.507315   20.939087 C.3        1 MOL1         0.1018
      34    H16     14.507484   17.011125   20.482390 H          1 MOL1         0.0783
      35    C11     16.051455   18.437882   19.891655 C.3        1 MOL1         0.1043
      36    H17     16.978116   18.832060   20.327229 H          1 MOL1         0.0783
      37    O9      15.146619   19.530606   19.601006 O.3        1 MOL1        -0.3740
      38    C12     16.440602   17.775730   18.546472 C.3        1 MOL1         0.0138
      39    H18     17.452471   17.364063   18.643780 H          1 MOL1         0.0794
      40    H19     16.499713   18.559406   17.779352 H          1 MOL1         0.0794
      41    O10     15.532066   16.747640   18.135203 O.3        1 MOL1        -0.5486
      42    H20     15.856575   15.913721   18.545412 H          1 MOL1         0.3769
      43    C13     18.497765   24.073589   21.827294 C.3        1 MOL1         0.2972
      44    H21     18.937682   25.071863   21.949846 H          1 MOL1         0.0751
      45    O11     19.508687   23.052932   21.746994 O.3        1 MOL1        -0.3740
      46    C14     17.584309   23.754025   23.034433 C.3        1 MOL1         0.1003
      47    H22     16.778914   24.499836   23.048322 H          1 MOL1         0.0783
      48    O12     18.325289   23.831002   24.262825 O.3        1 MOL1        -0.5519
      49    H23     19.283269   23.774850   24.023361 H          1 MOL1         0.3769
      50    C15     16.943498   22.357848   22.875140 C.3        1 MOL1         0.1053
      51    H24     17.740570   21.605333   22.948967 H          1 MOL1         0.0783
      52    O13     15.983511   22.147337   23.916849 O.3        1 MOL1        -0.5519
      53    H25     16.446071   22.413662   24.742479 H          1 MOL1         0.3769
      54    C16     16.258082   22.208302   21.496238 C.3        1 MOL1         0.1018
      55    H26     15.308862   22.760025   21.517991 H          1 MOL1         0.0783
      56    C17     17.144546   22.703045   20.316418 C.3        1 MOL1         0.1043
      57    H27     17.955847   21.977209   20.180620 H          1 MOL1         0.0783
      58    O14     17.710223   24.004946   20.620717 O.3        1 MOL1        -0.3740
      59    C18     16.397813   22.801466   18.965057 C.3        1 MOL1         0.0138
      60    H28     16.209070   21.784449   18.595836 H          1 MOL1         0.0794
      61    H29     17.056699   23.291743   18.235836 H          1 MOL1         0.0794
      62    O15     15.161851   23.517719   19.081927 O.3        1 MOL1        -0.5486
      63    H30     14.779469   23.599910   18.181191 H          1 MOL1         0.3769
      64    C19     23.618388   22.706439   21.159396 C.3        1 MOL1         0.2972
      65    H31     24.667592   22.897100   20.900337 H          1 MOL1         0.0751
      66    O16     23.413892   21.354986   21.608183 O.3        1 MOL1        -0.3740
      67    C20     23.184244   23.638126   22.317746 C.3        1 MOL1         0.1003
      68    H32     23.306030   24.674399   21.976650 H          1 MOL1         0.0783
      69    O17     24.007508   23.416854   23.474325 O.3        1 MOL1        -0.5519
      70    H33     24.252455   22.457674   23.473275 H          1 MOL1         0.3769
      71    C21     21.693246   23.416938   22.664471 C.3        1 MOL1         0.1053
      72    H34     21.581604   22.405969   23.079931 H          1 MOL1         0.0783
      73    O18     21.274519   24.387340   23.630021 O.3        1 MOL1        -0.5519
      74    H35     21.992183   24.402337   24.302207 H          1 MOL1         0.3769
      75    C22     20.820221   23.517412   21.391388 C.3        1 MOL1         0.1018
      76    H36     20.810494   24.562068   21.053224 H          1 MOL1         0.0783
      77    C23     21.357597   22.623123   20.240954 C.3        1 MOL1         0.1043
      78    H37     21.266027   21.574040   20.547060 H          1 MOL1         0.0783
      79    O19     22.756672   22.938557   20.022321 O.3        1 MOL1        -0.3740
      80    C24     20.593154   22.768942   18.899145 C.3        1 MOL1         0.0138
      81    H38     19.757119   22.058475   18.895830 H          1 MOL1         0.0794
      82    H39     21.261201   22.470518   18.080424 H          1 MOL1         0.0794
      83    O20     20.095938   24.094175   18.673322 O.3        1 MOL1        -0.5486
      84    H40     19.322823   24.218322   19.271653 H          1 MOL1         0.3769
      85    C25     25.127954   17.563939   21.357430 C.3        1 MOL1         0.2972
      86    H41     25.810447   16.725494   21.169694 H          1 MOL1         0.0751
      87    O21     23.867894   17.114850   21.887664 O.3        1 MOL1        -0.3740
      88    C26     25.741201   18.515465   22.413627 C.3        1 MOL1         0.1003
      89    H42     26.705868   18.868649   22.026755 H          1 MOL1         0.0783
      90    O22     25.946779   17.813160   23.650299 O.3        1 MOL1        -0.5519
      91    H43     25.169084   17.213201   23.765138 H          1 MOL1         0.3769
      92    C27     24.830576   19.745883   22.640267 C.3        1 MOL1         0.1053
      93    H44     23.904184   19.404457   23.123340 H          1 MOL1         0.0783
      94    O23     25.499171   20.689155   23.485559 O.3        1 MOL1        -0.5519
      95    H45     25.855821   20.156929   24.231052 H          1 MOL1         0.3769
      96    C28     24.453123   20.414069   21.296966 C.3        1 MOL1         0.1018
      97    H46     25.347301   20.902409   20.887908 H          1 MOL1         0.0783
      98    C29     23.910347   19.380121   20.271244 C.3        1 MOL1         0.1043
      99    H47     22.967237   18.973462   20.655904 H          1 MOL1         0.0783
     100    O24     24.882126   18.310590   20.145230 O.3        1 MOL1        -0.3740
     101    C30     23.599820   19.943321   18.861164 C.3        1 MOL1         0.0138
     102    H48     22.568634   20.320335   18.859891 H          1 MOL1         0.0794
     103    H49     23.630988   19.116292   18.139934 H          1 MOL1         0.0794
     104    O25     24.495583   20.985227   18.457059 O.3        1 MOL1        -0.5486
     105    H50     24.124864   21.824190   18.814044 H          1 MOL1         0.3769
     106    C31     21.319011   13.804876   21.697128 C.3        1 MOL1         0.2972
     107    H51     20.935636   12.781676   21.594518 H          1 MOL1         0.0751
     108    O26     20.250562   14.749256   21.895933 O.3        1 MOL1        -0.3740
     109    C32     22.257199   13.883825   22.926376 C.3        1 MOL1         0.1003
     110    H52     23.059322   13.149251   22.778141 H          1 MOL1         0.0783
     111    O27     21.531799   13.561732   24.123709 O.3        1 MOL1        -0.5519
     112    H53     20.600465   13.857855   23.975995 H          1 MOL1         0.3769
     113    C33     22.907085   15.282092   23.047972 C.3        1 MOL1         0.1053
     114    H54     22.121404   16.005098   23.305276 H          1 MOL1         0.0783
     115    O28     23.901665   15.257659   24.078851 O.3        1 MOL1        -0.5519
     116    H55     23.461876   14.830233   24.846719 H          1 MOL1         0.3769
     117    C34     23.545867   15.724376   21.709870 C.3        1 MOL1         0.1018
     118    H56     24.441796   15.114506   21.534583 H          1 MOL1         0.0783
     119    C35     22.551041   15.559868   20.525366 C.3        1 MOL1         0.1043
     120    H57     21.715842   16.253304   20.687854 H          1 MOL1         0.0783
     121    O29     22.056270   14.195977   20.520102 O.3        1 MOL1        -0.3740
     122    C36     23.120269   15.864924   19.117388 C.3        1 MOL1         0.0138
     123    H58     23.025791   16.942355   18.932444 H          1 MOL1         0.0794
     124    H59     22.490448   15.364715   18.370170 H          1 MOL1         0.0794
     125    O30     24.484078   15.458449   18.958712 O.3        1 MOL1        -0.5486
     126    H60     25.030043   16.259904   19.118258 H          1 MOL1         0.3769
     127    C1      19.866099   19.053738   19.744508 C.2        1 MOL1         0.6173
     128    O1      20.742212   18.254962   19.469250 O.co2      1 MOL1        -0.6755
     129    O2      19.119109   19.543404   18.919551 O.co2      1 MOL1        -0.6755
     130    C2      19.694768   19.498649   21.152763 C.2        1 MOL1        -0.1504
     131    H1      18.896547   20.213773   21.327287 H          1 MOL1         0.0814
     132    C3      20.464756   19.082769   22.182078 C.2        1 MOL1        -0.1394
     133    H2      21.266105   18.361610   22.030464 H          1 MOL1         0.0817
     134    C4      20.281054   19.572490   23.601667 C.3        1 MOL1        -0.1849
     135    H3      19.960290   20.622591   23.590843 H          1 MOL1         0.0736
     136    H4      21.241885   19.549892   24.132687 H          1 MOL1         0.0736
     137    C5      19.238462   18.734073   24.371495 C.3        1 MOL1        -0.1866
     138    H5      19.031485   19.213471   25.337780 H          1 MOL1         0.0738
     139    H6      18.290664   18.722339   23.815357 H          1 MOL1         0.0738
     140    C6      19.718216   17.288093   24.616150 C.3        1 MOL1        -0.2879
     141    H7      20.646474   17.275672   25.201601 H          1 MOL1         0.0750
     142    H8      18.960681   16.715040   25.165701 H          1 MOL1         0.0750
     143    H9      19.907980   16.775164   23.666232 H          1 MOL1         0.0750
@<TRIPOS>BOND
    1     1     2    1
    2     1     3    1
    3     1     4    1
    4     4     5    1
    5     4     6    1
    6     6     7    1
    7     4     8    1
    8     8     9    1
    9     8    10    1
   10    10    11    1
   11     8    12    1
   12    12    13    1
   13    12    14    1
   14    14    15    1
   15     1    16    1
   16    14    16    1
   17    14    17    1
   18    17    18    1
   19    17    19    1
   20    17    20    1
   21    20    21    1
   22    22    23    1
   23    22    24    1
   24    22    25    1
   25    25    26    1
   26    25    27    1
   27    27    28    1
   28    25    29    1
   29    29    30    1
   30    29    31    1
   31    31    32    1
   32     3    33    1
   33    29    33    1
   34    33    34    1
   35    33    35    1
   36    35    36    1
   37    22    37    1
   38    35    37    1
   39    35    38    1
   40    38    39    1
   41    38    40    1
   42    38    41    1
   43    41    42    1
   44    43    44    1
   45    43    45    1
   46    43    46    1
   47    46    47    1
   48    46    48    1
   49    48    49    1
   50    46    50    1
   51    50    51    1
   52    50    52    1
   53    52    53    1
   54    24    54    1
   55    50    54    1
   56    54    55    1
   57    54    56    1
   58    56    57    1
   59    43    58    1
   60    56    58    1
   61    56    59    1
   62    59    60    1
   63    59    61    1
   64    59    62    1
   65    62    63    1
   66    64    65    1
   67    64    66    1
   68    64    67    1
   69    67    68    1
   70    67    69    1
   71    69    70    1
   72    67    71    1
   73    71    72    1
   74    71    73    1
   75    73    74    1
   76    45    75    1
   77    71    75    1
   78    75    76    1
   79    75    77    1
   80    77    78    1
   81    64    79    1
   82    77    79    1
   83    77    80    1
   84    80    81    1
   85    80    82    1
   86    80    83    1
   87    83    84    1
   88    85    86    1
   89    85    87    1
   90    85    88    1
   91    88    89    1
   92    88    90    1
   93    90    91    1
   94    88    92    1
   95    92    93    1
   96    92    94    1
   97    94    95    1
   98    66    96    1
   99    92    96    1
  100    96    97    1
  101    96    98    1
  102    98    99    1
  103    85   100    1
  104    98   100    1
  105    98   101    1
  106   101   102    1
  107   101   103    1
  108   101   104    1
  109   104   105    1
  110   106   107    1
  111    12   108    1
  112   106   108    1
  113   106   109    1
  114   109   110    1
  115   109   111    1
  116   111   112    1
  117   109   113    1
  118   113   114    1
  119   113   115    1
  120   115   116    1
  121    87   117    1
  122   113   117    1
  123   117   118    1
  124   117   119    1
  125   119   120    1
  126   106   121    1
  127   119   121    1
  128   119   122    1
  129   122   123    1
  130   122   124    1
  131   122   125    1
  132   125   126    1
  133   127   128    1
  134   127   129    2
  135   127   130    1
  136   130   131    1
  137   130   132    2
  138   132   133    1
  139   132   134    1
  140   134   135    1
  141   134   136    1
  142   134   137    1
  143   137   138    1
  144   137   139    1
  145   137   140    1
  146   140   141    1
  147   140   142    1
  148   140   143    1
@<TRIPOS>SUBSTRUCTURE
       1 MOL1            1 RESIDUE      1      MOL     
       2 MOL1          143 RESIDUE      1      MOL     
@<SCITEGIC>MOL_PROPERTY
feprocess Rank
SciTegic.value.IntegerValue
157

@<SCITEGIC>MOL_PROPERTY
Conf_Id
SciTegic.value.IntegerValue
11

@<SCITEGIC>MOL_PROPERTY
Probability
SciTegic.value.DoubleValue
0.00

@<SCITEGIC>MOL_PROPERTY
G
SciTegic.value.DoubleValue
504.064

@<SCITEGIC>MOL_PROPERTY
E
SciTegic.value.DoubleValue
323.790

@<SCITEGIC>MOL_PROPERTY
-TS
SciTegic.value.DoubleValue
180.274

@<SCITEGIC>MOL_PROPERTY
U+W
SciTegic.value.DoubleValue
197.702

@<SCITEGIC>MOL_PROPERTY
U
SciTegic.value.DoubleValue
264.076

@<SCITEGIC>MOL_PROPERTY
W
SciTegic.value.DoubleValue
-66.374

@<SCITEGIC>MOL_PROPERTY
W(PB)
SciTegic.value.DoubleValue
-72.232

@<SCITEGIC>MOL_PROPERTY
W(SA)
SciTegic.value.DoubleValue
5.858

@<SCITEGIC>MOL_PROPERTY
Valence
SciTegic.value.DoubleValue
152.126

@<SCITEGIC>MOL_PROPERTY
Coulomb
SciTegic.value.DoubleValue
141.431

@<SCITEGIC>MOL_PROPERTY
VdW
SciTegic.value.DoubleValue
-29.481

@<SCITEGIC>MOL_PROPERTY
VdW6
SciTegic.value.DoubleValue
-182.999

@<SCITEGIC>MOL_PROPERTY
VdW12
SciTegic.value.DoubleValue
153.517

@<SCITEGIC>MOL_PROPERTY
Bond
SciTegic.value.DoubleValue
4.298

@<SCITEGIC>MOL_PROPERTY
Angle
SciTegic.value.DoubleValue
13.255

@<SCITEGIC>MOL_PROPERTY
Pdih
SciTegic.value.DoubleValue
134.571

@<SCITEGIC>MOL_PROPERTY
Idih
SciTegic.value.DoubleValue
0.002

@<SCITEGIC>MOL_PROPERTY
Tether
SciTegic.value.DoubleValue
0.000

@<TRIPOS>MOLECULE
CD_guest-s19_fast_vm2_rndm.mol2 : feprocess host+ligand conformer 158
         143         148           2
SMALL
USER_CHARGES
 
@<TRIPOS>ATOM
       1    C1      15.947334   15.328112   20.423343 C.3        1 MOL1         0.2972
       2    H1      14.993206   15.210523   19.895270 H          1 MOL1         0.0751
       3    O1      15.765798   16.048912   21.656373 O.3        1 MOL1        -0.3740
       4    C2      16.530026   13.928102   20.750261 C.3        1 MOL1         0.1003
       5    H2      16.594099   13.378506   19.802099 H          1 MOL1         0.0783
       6    O2      15.655690   13.224382   21.644515 O.3        1 MOL1        -0.5519
       7    H3      15.464467   13.850787   22.379007 H          1 MOL1         0.3769
       8    C3      17.957677   13.998220   21.350897 C.3        1 MOL1         0.1053
       9    H4      17.884166   14.382141   22.377489 H          1 MOL1         0.0783
      10    O3      18.509107   12.676898   21.352808 O.3        1 MOL1        -0.5519
      11    H5      17.869534   12.126333   21.853709 H          1 MOL1         0.3769
      12    C4      18.874009   14.953759   20.545258 C.3        1 MOL1         0.1018
      13    H6      19.112010   14.483513   19.581913 H          1 MOL1         0.0783
      14    C5      18.177394   16.311273   20.273686 C.3        1 MOL1         0.1043
      15    H7      18.003799   16.813990   21.233872 H          1 MOL1         0.0783
      16    O4      16.912975   16.045747   19.620863 O.3        1 MOL1        -0.3740
      17    C6      18.989393   17.287846   19.387412 C.3        1 MOL1         0.0138
      18    H8      19.669475   17.856461   20.032874 H          1 MOL1         0.0794
      19    H9      18.298116   18.011790   18.939948 H          1 MOL1         0.0794
      20    O5      19.730775   16.625338   18.356716 O.3        1 MOL1        -0.5486
      21    H10     20.390714   16.040637   18.795943 H          1 MOL1         0.3769
      22    C7      14.690322   20.066595   22.051852 C.3        1 MOL1         0.2972
      23    H11     14.162573   21.019055   22.192046 H          1 MOL1         0.0751
      24    O6      16.101550   20.272643   21.852345 O.3        1 MOL1        -0.3740
      25    C8      14.464307   19.174604   23.290070 C.3        1 MOL1         0.1003
      26    H12     13.381233   19.027642   23.392467 H          1 MOL1         0.0783
      27    O7      14.968399   19.821757   24.470024 O.3        1 MOL1        -0.5519
      28    H13     15.540240   20.567845   24.164258 H          1 MOL1         0.3769
      29    C9      15.116109   17.786411   23.113841 C.3        1 MOL1         0.1053
      30    H14     16.204308   17.926939   23.154789 H          1 MOL1         0.0783
      31    O8      14.693015   16.949846   24.195525 O.3        1 MOL1        -0.5519
      32    H15     14.885152   17.465397   25.008803 H          1 MOL1         0.3769
      33    C10     14.779725   17.114512   21.752707 C.3        1 MOL1         0.1018
      34    H16     13.769734   16.690219   21.813399 H          1 MOL1         0.0783
      35    C11     14.840872   18.127864   20.553961 C.3        1 MOL1         0.1043
      36    H17     15.895710   18.328842   20.335883 H          1 MOL1         0.0783
      37    O9      14.181959   19.372736   20.901856 O.3        1 MOL1        -0.3740
      38    C12     14.154411   17.666376   19.238839 C.3        1 MOL1         0.0138
      39    H18     14.827498   17.010724   18.675209 H          1 MOL1         0.0794
      40    H19     13.990814   18.549318   18.606050 H          1 MOL1         0.0794
      41    O10     12.908484   17.001745   19.478529 O.3        1 MOL1        -0.5486
      42    H20     12.487368   16.832642   18.607453 H          1 MOL1         0.3769
      43    C13     18.602530   23.500561   20.875200 C.3        1 MOL1         0.2972
      44    H21     18.953200   24.475818   20.512864 H          1 MOL1         0.0751
      45    O11     19.700165   22.664035   21.279299 O.3        1 MOL1        -0.3740
      46    C14     17.666449   23.701918   22.095432 C.3        1 MOL1         0.1003
      47    H22     16.831020   24.333120   21.765713 H          1 MOL1         0.0783
      48    O12     18.359535   24.360612   23.167644 O.3        1 MOL1        -0.5519
      49    H23     19.310708   24.416194   22.902488 H          1 MOL1         0.3769
      50    C15     17.085280   22.352684   22.577461 C.3        1 MOL1         0.1053
      51    H24     17.909796   21.747335   22.975276 H          1 MOL1         0.0783
      52    O13     16.113334   22.585666   23.602187 O.3        1 MOL1        -0.5519
      53    H25     16.538719   23.233431   24.207763 H          1 MOL1         0.3769
      54    C16     16.442533   21.594513   21.392894 C.3        1 MOL1         0.1018
      55    H26     15.556503   22.153842   21.063861 H          1 MOL1         0.0783
      56    C17     17.416521   21.470191   20.191599 C.3        1 MOL1         0.1043
      57    H27     18.265213   20.847398   20.500101 H          1 MOL1         0.0783
      58    O14     17.889245   22.794560   19.834855 O.3        1 MOL1        -0.3740
      59    C18     16.795870   20.816334   18.929830 C.3        1 MOL1         0.0138
      60    H28     16.894217   19.728781   19.016272 H          1 MOL1         0.0794
      61    H29     17.382917   21.118174   18.052040 H          1 MOL1         0.0794
      62    O15     15.416709   21.155292   18.740279 O.3        1 MOL1        -0.5486
      63    H30     14.901036   20.685430   19.436132 H          1 MOL1         0.3769
      64    C19     23.888103   22.670319   20.957169 C.3        1 MOL1         0.2972
      65    H31     24.908065   22.865465   20.602248 H          1 MOL1         0.0751
      66    O16     23.889648   21.752468   22.066536 O.3        1 MOL1        -0.3740
      67    C20     23.236754   23.989577   21.452253 C.3        1 MOL1         0.1003
      68    H32     23.252133   24.700946   20.616248 H          1 MOL1         0.0783
      69    O17     23.981511   24.530225   22.553202 O.3        1 MOL1        -0.5519
      70    H33     24.131617   23.778136   23.170456 H          1 MOL1         0.3769
      71    C21     21.761998   23.768682   21.871427 C.3        1 MOL1         0.1053
      72    H34     21.748076   23.132304   22.767434 H          1 MOL1         0.0783
      73    O18     21.151999   25.030996   22.161586 O.3        1 MOL1        -0.5519
      74    H35     21.809741   25.514804   22.709722 H          1 MOL1         0.3769
      75    C22     20.982495   23.040894   20.751874 C.3        1 MOL1         0.1018
      76    H36     20.887607   23.711796   19.887462 H          1 MOL1         0.0783
      77    C23     21.714731   21.751651   20.303039 C.3        1 MOL1         0.1043
      78    H37     21.759852   21.059049   21.152428 H          1 MOL1         0.0783
      79    O19     23.058904   22.115301   19.906046 O.3        1 MOL1        -0.3740
      80    C24     21.022670   20.996223   19.138699 C.3        1 MOL1         0.0138
      81    H38     20.289004   20.301460   19.566797 H          1 MOL1         0.0794
      82    H39     21.773373   20.387874   18.617613 H          1 MOL1         0.0794
      83    O20     20.367086   21.868802   18.210339 O.3        1 MOL1        -0.5486
      84    H40     19.598041   22.271129   18.676481 H          1 MOL1         0.3769
      85    C25     25.093317   17.813254   22.354599 C.3        1 MOL1         0.2972
      86    H41     25.613597   16.853275   22.469556 H          1 MOL1         0.0751
      87    O21     23.688065   17.626088   22.097186 O.3        1 MOL1        -0.3740
      88    C26     25.275499   18.650702   23.636482 C.3        1 MOL1         0.1003
      89    H42     26.351002   18.830390   23.763781 H          1 MOL1         0.0783
      90    O22     24.774075   17.936957   24.778168 O.3        1 MOL1        -0.5519
      91    H43     24.189985   17.218222   24.432255 H          1 MOL1         0.3769
      92    C27     24.575514   20.018293   23.500595 C.3        1 MOL1         0.1053
      93    H44     23.493598   19.831239   23.486929 H          1 MOL1         0.0783
      94    O23     24.910900   20.819454   24.638586 O.3        1 MOL1        -0.5519
      95    H45     24.751232   20.236062   25.413018 H          1 MOL1         0.3769
      96    C28     24.944326   20.765544   22.188247 C.3        1 MOL1         0.1018
      97    H46     25.916497   21.254837   22.327752 H          1 MOL1         0.0783
      98    C29     25.002010   19.820744   20.937060 C.3        1 MOL1         0.1043
      99    H47     23.971309   19.625509   20.620569 H          1 MOL1         0.0783
     100    O24     25.646480   18.560569   21.259136 O.3        1 MOL1        -0.3740
     101    C30     25.781825   20.378949   19.715906 C.3        1 MOL1         0.0138
     102    H48     25.159462   21.096259   19.170107 H          1 MOL1         0.0794
     103    H49     25.975279   19.550096   19.021372 H          1 MOL1         0.0794
     104    O25     27.017403   20.995655   20.096494 O.3        1 MOL1        -0.5486
     105    H50     27.498555   21.233193   19.273784 H          1 MOL1         0.3769
     106    C31     21.210744   14.420975   20.936908 C.3        1 MOL1         0.2972
     107    H51     20.901167   13.452290   20.523732 H          1 MOL1         0.0751
     108    O26     20.065009   15.202873   21.320812 O.3        1 MOL1        -0.3740
     109    C32     22.135830   14.185404   22.164185 C.3        1 MOL1         0.1003
     110    H52     22.987298   13.593576   21.804390 H          1 MOL1         0.0783
     111    O27     21.473526   13.442043   23.196986 O.3        1 MOL1        -0.5519
     112    H53     20.684557   13.977023   23.492589 H          1 MOL1         0.3769
     113    C33     22.698112   15.512549   22.722792 C.3        1 MOL1         0.1053
     114    H54     21.867915   16.095150   23.142022 H          1 MOL1         0.0783
     115    O28     23.662373   15.233824   23.743792 O.3        1 MOL1        -0.5519
     116    H55     23.236268   14.554155   24.313020 H          1 MOL1         0.3769
     117    C34     23.352475   16.324169   21.581685 C.3        1 MOL1         0.1018
     118    H56     24.241351   15.782854   21.230483 H          1 MOL1         0.0783
     119    C35     22.384023   16.501699   20.386136 C.3        1 MOL1         0.1043
     120    H57     21.528165   17.088812   20.738099 H          1 MOL1         0.0783
     121    O29     21.933282   15.192951   19.946990 O.3        1 MOL1        -0.3740
     122    C36     22.995630   17.249266   19.171842 C.3        1 MOL1         0.0138
     123    H58     22.846032   18.325705   19.315911 H          1 MOL1         0.0794
     124    H59     22.437823   16.972976   18.267459 H          1 MOL1         0.0794
     125    O30     24.390186   16.976856   18.985886 O.3        1 MOL1        -0.5486
     126    H60     24.876057   17.399510   19.731799 H          1 MOL1         0.3769
     127    C1      18.601451   15.607955   24.951263 C.2        1 MOL1         0.6173
     128    O1      17.882855   15.177316   25.832502 O.co2      1 MOL1        -0.6755
     129    O2      19.440777   14.931277   24.386407 O.co2      1 MOL1        -0.6755
     130    C2      18.441809   17.038344   24.573794 C.2        1 MOL1        -0.1504
     131    H1      17.694524   17.595797   25.133051 H          1 MOL1         0.0814
     132    C3      19.169405   17.644674   23.609228 C.2        1 MOL1        -0.1394
     133    H2      19.919322   17.091766   23.051585 H          1 MOL1         0.0817
     134    C4      19.035285   19.103162   23.236292 C.3        1 MOL1        -0.1849
     135    H3      18.262612   19.584816   23.850211 H          1 MOL1         0.0736
     136    H4      18.698008   19.181109   22.195817 H          1 MOL1         0.0736
     137    C5      20.371790   19.858694   23.398288 C.3        1 MOL1        -0.1866
     138    H5      21.141482   19.391931   22.768903 H          1 MOL1         0.0738
     139    H6      20.247032   20.887815   23.043903 H          1 MOL1         0.0738
     140    C6      20.854700   19.900080   24.862798 C.3        1 MOL1        -0.2879
     141    H7      21.086204   18.892083   25.230910 H          1 MOL1         0.0750
     142    H8      21.761580   20.510805   24.955242 H          1 MOL1         0.0750
     143    H9      20.086896   20.335503   25.515049 H          1 MOL1         0.0750
@<TRIPOS>BOND
    1     1     2    1
    2     1     3    1
    3     1     4    1
    4     4     5    1
    5     4     6    1
    6     6     7    1
    7     4     8    1
    8     8     9    1
    9     8    10    1
   10    10    11    1
   11     8    12    1
   12    12    13    1
   13    12    14    1
   14    14    15    1
   15     1    16    1
   16    14    16    1
   17    14    17    1
   18    17    18    1
   19    17    19    1
   20    17    20    1
   21    20    21    1
   22    22    23    1
   23    22    24    1
   24    22    25    1
   25    25    26    1
   26    25    27    1
   27    27    28    1
   28    25    29    1
   29    29    30    1
   30    29    31    1
   31    31    32    1
   32     3    33    1
   33    29    33    1
   34    33    34    1
   35    33    35    1
   36    35    36    1
   37    22    37    1
   38    35    37    1
   39    35    38    1
   40    38    39    1
   41    38    40    1
   42    38    41    1
   43    41    42    1
   44    43    44    1
   45    43    45    1
   46    43    46    1
   47    46    47    1
   48    46    48    1
   49    48    49    1
   50    46    50    1
   51    50    51    1
   52    50    52    1
   53    52    53    1
   54    24    54    1
   55    50    54    1
   56    54    55    1
   57    54    56    1
   58    56    57    1
   59    43    58    1
   60    56    58    1
   61    56    59    1
   62    59    60    1
   63    59    61    1
   64    59    62    1
   65    62    63    1
   66    64    65    1
   67    64    66    1
   68    64    67    1
   69    67    68    1
   70    67    69    1
   71    69    70    1
   72    67    71    1
   73    71    72    1
   74    71    73    1
   75    73    74    1
   76    45    75    1
   77    71    75    1
   78    75    76    1
   79    75    77    1
   80    77    78    1
   81    64    79    1
   82    77    79    1
   83    77    80    1
   84    80    81    1
   85    80    82    1
   86    80    83    1
   87    83    84    1
   88    85    86    1
   89    85    87    1
   90    85    88    1
   91    88    89    1
   92    88    90    1
   93    90    91    1
   94    88    92    1
   95    92    93    1
   96    92    94    1
   97    94    95    1
   98    66    96    1
   99    92    96    1
  100    96    97    1
  101    96    98    1
  102    98    99    1
  103    85   100    1
  104    98   100    1
  105    98   101    1
  106   101   102    1
  107   101   103    1
  108   101   104    1
  109   104   105    1
  110   106   107    1
  111    12   108    1
  112   106   108    1
  113   106   109    1
  114   109   110    1
  115   109   111    1
  116   111   112    1
  117   109   113    1
  118   113   114    1
  119   113   115    1
  120   115   116    1
  121    87   117    1
  122   113   117    1
  123   117   118    1
  124   117   119    1
  125   119   120    1
  126   106   121    1
  127   119   121    1
  128   119   122    1
  129   122   123    1
  130   122   124    1
  131   122   125    1
  132   125   126    1
  133   127   128    1
  134   127   129    2
  135   127   130    1
  136   130   131    1
  137   130   132    2
  138   132   133    1
  139   132   134    1
  140   134   135    1
  141   134   136    1
  142   134   137    1
  143   137   138    1
  144   137   139    1
  145   137   140    1
  146   140   141    1
  147   140   142    1
  148   140   143    1
@<TRIPOS>SUBSTRUCTURE
       1 MOL1            1 RESIDUE      1      MOL     
       2 MOL1          143 RESIDUE      1      MOL     
@<SCITEGIC>MOL_PROPERTY
feprocess Rank
SciTegic.value.IntegerValue
158

@<SCITEGIC>MOL_PROPERTY
Conf_Id
SciTegic.value.IntegerValue
840

@<SCITEGIC>MOL_PROPERTY
Probability
SciTegic.value.DoubleValue
0.00

@<SCITEGIC>MOL_PROPERTY
G
SciTegic.value.DoubleValue
504.266

@<SCITEGIC>MOL_PROPERTY
E
SciTegic.value.DoubleValue
322.775

@<SCITEGIC>MOL_PROPERTY
-TS
SciTegic.value.DoubleValue
181.491

@<SCITEGIC>MOL_PROPERTY
U+W
SciTegic.value.DoubleValue
196.687

@<SCITEGIC>MOL_PROPERTY
U
SciTegic.value.DoubleValue
278.294

@<SCITEGIC>MOL_PROPERTY
W
SciTegic.value.DoubleValue
-81.607

@<SCITEGIC>MOL_PROPERTY
W(PB)
SciTegic.value.DoubleValue
-87.500

@<SCITEGIC>MOL_PROPERTY
W(SA)
SciTegic.value.DoubleValue
5.893

@<SCITEGIC>MOL_PROPERTY
Valence
SciTegic.value.DoubleValue
147.984

@<SCITEGIC>MOL_PROPERTY
Coulomb
SciTegic.value.DoubleValue
156.147

@<SCITEGIC>MOL_PROPERTY
VdW
SciTegic.value.DoubleValue
-25.838

@<SCITEGIC>MOL_PROPERTY
VdW6
SciTegic.value.DoubleValue
-180.732

@<SCITEGIC>MOL_PROPERTY
VdW12
SciTegic.value.DoubleValue
154.895

@<SCITEGIC>MOL_PROPERTY
Bond
SciTegic.value.DoubleValue
5.116

@<SCITEGIC>MOL_PROPERTY
Angle
SciTegic.value.DoubleValue
16.194

@<SCITEGIC>MOL_PROPERTY
Pdih
SciTegic.value.DoubleValue
126.673

@<SCITEGIC>MOL_PROPERTY
Idih
SciTegic.value.DoubleValue
0.001

@<SCITEGIC>MOL_PROPERTY
Tether
SciTegic.value.DoubleValue
0.000

@<TRIPOS>MOLECULE
CD_guest-s19_fast_vm2_rndm.mol2 : feprocess host+ligand conformer 159
         143         148           2
SMALL
USER_CHARGES
 
@<TRIPOS>ATOM
       1    C1      16.117618   15.065513   21.486351 C.3        1 MOL1         0.2972
       2    H1      15.042111   14.885723   21.362472 H          1 MOL1         0.0751
       3    O1      16.389145   16.447710   21.784902 O.3        1 MOL1        -0.3740
       4    C2      16.652448   14.215346   22.664325 C.3        1 MOL1         0.1003
       5    H2      16.431389   13.163475   22.441455 H          1 MOL1         0.0783
       6    O2      15.994756   14.593412   23.884189 O.3        1 MOL1        -0.5519
       7    H3      15.808316   15.561324   23.813723 H          1 MOL1         0.3769
       8    C3      18.185353   14.361464   22.810681 C.3        1 MOL1         0.1053
       9    H4      18.401817   15.384090   23.146214 H          1 MOL1         0.0783
      10    O3      18.663706   13.421982   23.780627 O.3        1 MOL1        -0.5519
      11    H5      18.065839   13.526477   24.553434 H          1 MOL1         0.3769
      12    C4      18.909034   14.139846   21.460962 C.3        1 MOL1         0.1018
      13    H6      18.861290   13.071306   21.213410 H          1 MOL1         0.0783
      14    C5      18.263174   14.979992   20.321612 C.3        1 MOL1         0.1043
      15    H7      18.427059   16.040724   20.550178 H          1 MOL1         0.0783
      16    O4      16.838990   14.705994   20.289802 O.3        1 MOL1        -0.3740
      17    C6      18.826396   14.737702   18.899003 C.3        1 MOL1         0.0138
      18    H8      19.696299   15.391257   18.756191 H          1 MOL1         0.0794
      19    H9      18.073967   15.057181   18.166262 H          1 MOL1         0.0794
      20    O5      19.191401   13.374013   18.659354 O.3        1 MOL1        -0.5486
      21    H10     20.162673   13.320053   18.798048 H          1 MOL1         0.3769
      22    C7      14.786516   20.253131   21.061072 C.3        1 MOL1         0.2972
      23    H11     14.105165   21.062349   20.768838 H          1 MOL1         0.0751
      24    O6      16.057154   20.767219   21.501324 O.3        1 MOL1        -0.3740
      25    C8      14.167575   19.455367   22.234603 C.3        1 MOL1         0.1003
      26    H12     13.193530   19.074177   21.901482 H          1 MOL1         0.0783
      27    O7      13.981095   20.313798   23.371354 O.3        1 MOL1        -0.5519
      28    H13     14.706062   20.984491   23.338486 H          1 MOL1         0.3769
      29    C9      15.053556   18.245039   22.609438 C.3        1 MOL1         0.1053
      30    H14     15.992326   18.630780   23.028067 H          1 MOL1         0.0783
      31    O8      14.378165   17.440042   23.582546 O.3        1 MOL1        -0.5519
      32    H15     14.059549   18.074271   24.261985 H          1 MOL1         0.3769
      33    C10     15.391792   17.395865   21.360364 C.3        1 MOL1         0.1018
      34    H16     14.472448   16.900976   21.020846 H          1 MOL1         0.0783
      35    C11     15.957965   18.279708   20.211669 C.3        1 MOL1         0.1043
      36    H17     16.921343   18.694661   20.539162 H          1 MOL1         0.0783
      37    O9      15.019468   19.356241   19.955433 O.3        1 MOL1        -0.3740
      38    C12     16.211035   17.552796   18.866961 C.3        1 MOL1         0.0138
      39    H18     17.222656   17.131155   18.885112 H          1 MOL1         0.0794
      40    H19     16.199589   18.296716   18.059644 H          1 MOL1         0.0794
      41    O10     15.255839   16.521763   18.593518 O.3        1 MOL1        -0.5486
      42    H20     15.579362   15.715329   19.057682 H          1 MOL1         0.3769
      43    C13     18.574683   24.049640   20.869709 C.3        1 MOL1         0.2972
      44    H21     18.991963   25.011489   20.544844 H          1 MOL1         0.0751
      45    O11     19.556445   23.233646   21.530361 O.3        1 MOL1        -0.3740
      46    C14     17.419259   24.263877   21.879485 C.3        1 MOL1         0.1003
      47    H22     16.656955   24.880795   21.386290 H          1 MOL1         0.0783
      48    O12     17.897211   24.940608   23.054435 O.3        1 MOL1        -0.5519
      49    H23     18.748809   24.505926   23.312149 H          1 MOL1         0.3769
      50    C15     16.769496   22.911948   22.268760 C.3        1 MOL1         0.1053
      51    H24     17.498674   22.338041   22.857708 H          1 MOL1         0.0783
      52    O13     15.596284   23.153796   23.053775 O.3        1 MOL1        -0.5519
      53    H25     15.869463   23.815004   23.727660 H          1 MOL1         0.3769
      54    C16     16.403717   22.077947   21.015837 C.3        1 MOL1         0.1018
      55    H26     15.560355   22.567701   20.511511 H          1 MOL1         0.0783
      56    C17     17.600637   21.971697   20.028566 C.3        1 MOL1         0.1043
      57    H27     18.401885   21.399417   20.512930 H          1 MOL1         0.0783
      58    O14     18.063289   23.312602   19.740279 O.3        1 MOL1        -0.3740
      59    C18     17.305338   21.272806   18.678024 C.3        1 MOL1         0.0138
      60    H28     17.467481   20.195160   18.801689 H          1 MOL1         0.0794
      61    H29     18.047717   21.612823   17.943555 H          1 MOL1         0.0794
      62    O15     15.980105   21.516797   18.191882 O.3        1 MOL1        -0.5486
      63    H30     15.397733   20.853569   18.629107 H          1 MOL1         0.3769
      64    C19     23.639851   22.822199   21.939042 C.3        1 MOL1         0.2972
      65    H31     24.724358   22.964878   22.029722 H          1 MOL1         0.0751
      66    O16     23.283703   21.428353   21.933512 O.3        1 MOL1        -0.3740
      67    C20     22.924403   23.490900   23.136455 C.3        1 MOL1         0.1003
      68    H32     23.152379   24.564248   23.104212 H          1 MOL1         0.0783
      69    O17     23.399039   22.939284   24.375237 O.3        1 MOL1        -0.5519
      70    H33     23.738934   22.032461   24.173174 H          1 MOL1         0.3769
      71    C21     21.393417   23.320803   23.018294 C.3        1 MOL1         0.1053
      72    H34     21.156938   22.254637   23.141451 H          1 MOL1         0.0783
      73    O18     20.743297   24.081805   24.043164 O.3        1 MOL1        -0.5519
      74    H35     21.226360   23.858028   24.869547 H          1 MOL1         0.3769
      75    C22     20.882637   23.774826   21.630385 C.3        1 MOL1         0.1018
      76    H36     20.882183   24.872584   21.604036 H          1 MOL1         0.0783
      77    C23     21.732005   23.207530   20.455465 C.3        1 MOL1         0.1043
      78    H37     21.523943   22.132814   20.379243 H          1 MOL1         0.0783
      79    O19     23.145529   23.409302   20.718396 O.3        1 MOL1        -0.3740
      80    C24     21.407788   23.829768   19.076642 C.3        1 MOL1         0.0138
      81    H38     20.440547   23.438631   18.735011 H          1 MOL1         0.0794
      82    H39     22.162677   23.490906   18.354519 H          1 MOL1         0.0794
      83    O20     21.370994   25.261958   19.124583 O.3        1 MOL1        -0.5486
      84    H40     21.221207   25.585913   18.209848 H          1 MOL1         0.3769
      85    C25     24.992169   17.686318   21.280766 C.3        1 MOL1         0.2972
      86    H41     25.683221   16.871237   21.030804 H          1 MOL1         0.0751
      87    O21     23.682933   17.193702   21.619240 O.3        1 MOL1        -0.3740
      88    C26     25.524871   18.466152   22.507912 C.3        1 MOL1         0.1003
      89    H42     26.510145   18.871368   22.243179 H          1 MOL1         0.0783
      90    O22     25.658819   17.592516   23.640525 O.3        1 MOL1        -0.5519
      91    H43     24.973194   16.885208   23.541274 H          1 MOL1         0.3769
      92    C27     24.592658   19.652234   22.845306 C.3        1 MOL1         0.1053
      93    H44     23.628393   19.248124   23.182948 H          1 MOL1         0.0783
      94    O23     25.177794   20.444906   23.884142 O.3        1 MOL1        -0.5519
      95    H45     25.485880   19.795503   24.555145 H          1 MOL1         0.3769
      96    C28     24.342565   20.520662   21.590323 C.3        1 MOL1         0.1018
      97    H46     25.273549   21.045086   21.337677 H          1 MOL1         0.0783
      98    C29     23.892502   19.669350   20.370410 C.3        1 MOL1         0.1043
      99    H47     22.909669   19.238443   20.595555 H          1 MOL1         0.0783
     100    O24     24.851848   18.599447   20.169626 O.3        1 MOL1        -0.3740
     101    C30     23.743437   20.457233   19.043091 C.3        1 MOL1         0.0138
     102    H48     22.724782   20.860787   18.989214 H          1 MOL1         0.0794
     103    H49     23.846593   19.754656   18.205577 H          1 MOL1         0.0794
     104    O25     24.689187   21.525193   18.910820 O.3        1 MOL1        -0.5486
     105    H50     24.351653   22.272713   19.457185 H          1 MOL1         0.3769
     106    C31     21.307746   13.795110   21.092003 C.3        1 MOL1         0.2972
     107    H51     20.955058   12.793597   20.815272 H          1 MOL1         0.0751
     108    O26     20.259621   14.580694   21.686030 O.3        1 MOL1        -0.3740
     109    C32     22.432667   13.682930   22.150518 C.3        1 MOL1         0.1003
     110    H52     23.239063   13.076019   21.718793 H          1 MOL1         0.0783
     111    O27     21.932705   13.044032   23.336513 O.3        1 MOL1        -0.5519
     112    H53     21.015236   13.386203   23.473641 H          1 MOL1         0.3769
     113    C33     23.008292   15.077626   22.494829 C.3        1 MOL1         0.1053
     114    H54     22.232099   15.652477   23.019289 H          1 MOL1         0.0783
     115    O28     24.155835   14.927378   23.338197 O.3        1 MOL1        -0.5519
     116    H55     23.882345   14.285224   24.030442 H          1 MOL1         0.3769
     117    C34     23.391489   15.847995   21.209649 C.3        1 MOL1         0.1018
     118    H56     24.260960   15.355428   20.754826 H          1 MOL1         0.0783
     119    C35     22.223260   15.870211   20.186118 C.3        1 MOL1         0.1043
     120    H57     21.385887   16.427933   20.623960 H          1 MOL1         0.0783
     121    O29     21.817573   14.499875   19.938099 O.3        1 MOL1        -0.3740
     122    C36     22.546458   16.549711   18.830822 C.3        1 MOL1         0.0138
     123    H58     22.348271   17.625208   18.926408 H          1 MOL1         0.0794
     124    H59     21.848261   16.169477   18.073840 H          1 MOL1         0.0794
     125    O30     23.898260   16.344690   18.403684 O.3        1 MOL1        -0.5486
     126    H60     24.443129   17.025054   18.862003 H          1 MOL1         0.3769
     127    C1      20.028752   19.124366   19.911428 C.2        1 MOL1         0.6173
     128    O1      19.563874   18.063269   19.536840 O.co2      1 MOL1        -0.6755
     129    O2      20.287402   20.047104   19.162666 O.co2      1 MOL1        -0.6755
     130    C2      20.332589   19.325483   21.353229 C.2        1 MOL1        -0.1504
     131    H1      20.729951   20.300971   21.619161 H          1 MOL1         0.0814
     132    C3      20.158719   18.383595   22.306310 C.2        1 MOL1        -0.1394
     133    H2      19.762739   17.400176   22.058205 H          1 MOL1         0.0817
     134    C4      20.499093   18.607683   23.763783 C.3        1 MOL1        -0.1849
     135    H3      21.266133   19.389028   23.848398 H          1 MOL1         0.0736
     136    H4      20.940432   17.696880   24.189561 H          1 MOL1         0.0736
     137    C5      19.264032   19.026220   24.589705 C.3        1 MOL1        -0.1866
     138    H5      19.589423   19.343546   25.589622 H          1 MOL1         0.0738
     139    H6      18.785635   19.897969   24.121724 H          1 MOL1         0.0738
     140    C6      18.239355   17.881801   24.733324 C.3        1 MOL1        -0.2879
     141    H7      18.686833   17.013697   25.234111 H          1 MOL1         0.0750
     142    H8      17.373310   18.207206   25.323592 H          1 MOL1         0.0750
     143    H9      17.876626   17.559049   23.751262 H          1 MOL1         0.0750
@<TRIPOS>BOND
    1     1     2    1
    2     1     3    1
    3     1     4    1
    4     4     5    1
    5     4     6    1
    6     6     7    1
    7     4     8    1
    8     8     9    1
    9     8    10    1
   10    10    11    1
   11     8    12    1
   12    12    13    1
   13    12    14    1
   14    14    15    1
   15     1    16    1
   16    14    16    1
   17    14    17    1
   18    17    18    1
   19    17    19    1
   20    17    20    1
   21    20    21    1
   22    22    23    1
   23    22    24    1
   24    22    25    1
   25    25    26    1
   26    25    27    1
   27    27    28    1
   28    25    29    1
   29    29    30    1
   30    29    31    1
   31    31    32    1
   32     3    33    1
   33    29    33    1
   34    33    34    1
   35    33    35    1
   36    35    36    1
   37    22    37    1
   38    35    37    1
   39    35    38    1
   40    38    39    1
   41    38    40    1
   42    38    41    1
   43    41    42    1
   44    43    44    1
   45    43    45    1
   46    43    46    1
   47    46    47    1
   48    46    48    1
   49    48    49    1
   50    46    50    1
   51    50    51    1
   52    50    52    1
   53    52    53    1
   54    24    54    1
   55    50    54    1
   56    54    55    1
   57    54    56    1
   58    56    57    1
   59    43    58    1
   60    56    58    1
   61    56    59    1
   62    59    60    1
   63    59    61    1
   64    59    62    1
   65    62    63    1
   66    64    65    1
   67    64    66    1
   68    64    67    1
   69    67    68    1
   70    67    69    1
   71    69    70    1
   72    67    71    1
   73    71    72    1
   74    71    73    1
   75    73    74    1
   76    45    75    1
   77    71    75    1
   78    75    76    1
   79    75    77    1
   80    77    78    1
   81    64    79    1
   82    77    79    1
   83    77    80    1
   84    80    81    1
   85    80    82    1
   86    80    83    1
   87    83    84    1
   88    85    86    1
   89    85    87    1
   90    85    88    1
   91    88    89    1
   92    88    90    1
   93    90    91    1
   94    88    92    1
   95    92    93    1
   96    92    94    1
   97    94    95    1
   98    66    96    1
   99    92    96    1
  100    96    97    1
  101    96    98    1
  102    98    99    1
  103    85   100    1
  104    98   100    1
  105    98   101    1
  106   101   102    1
  107   101   103    1
  108   101   104    1
  109   104   105    1
  110   106   107    1
  111    12   108    1
  112   106   108    1
  113   106   109    1
  114   109   110    1
  115   109   111    1
  116   111   112    1
  117   109   113    1
  118   113   114    1
  119   113   115    1
  120   115   116    1
  121    87   117    1
  122   113   117    1
  123   117   118    1
  124   117   119    1
  125   119   120    1
  126   106   121    1
  127   119   121    1
  128   119   122    1
  129   122   123    1
  130   122   124    1
  131   122   125    1
  132   125   126    1
  133   127   128    1
  134   127   129    2
  135   127   130    1
  136   130   131    1
  137   130   132    2
  138   132   133    1
  139   132   134    1
  140   134   135    1
  141   134   136    1
  142   134   137    1
  143   137   138    1
  144   137   139    1
  145   137   140    1
  146   140   141    1
  147   140   142    1
  148   140   143    1
@<TRIPOS>SUBSTRUCTURE
       1 MOL1            1 RESIDUE      1      MOL     
       2 MOL1          143 RESIDUE      1      MOL     
@<SCITEGIC>MOL_PROPERTY
feprocess Rank
SciTegic.value.IntegerValue
159

@<SCITEGIC>MOL_PROPERTY
Conf_Id
SciTegic.value.IntegerValue
231

@<SCITEGIC>MOL_PROPERTY
Probability
SciTegic.value.DoubleValue
0.00

@<SCITEGIC>MOL_PROPERTY
G
SciTegic.value.DoubleValue
504.396

@<SCITEGIC>MOL_PROPERTY
E
SciTegic.value.DoubleValue
324.111

@<SCITEGIC>MOL_PROPERTY
-TS
SciTegic.value.DoubleValue
180.285

@<SCITEGIC>MOL_PROPERTY
U+W
SciTegic.value.DoubleValue
198.023

@<SCITEGIC>MOL_PROPERTY
U
SciTegic.value.DoubleValue
263.556

@<SCITEGIC>MOL_PROPERTY
W
SciTegic.value.DoubleValue
-65.534

@<SCITEGIC>MOL_PROPERTY
W(PB)
SciTegic.value.DoubleValue
-71.386

@<SCITEGIC>MOL_PROPERTY
W(SA)
SciTegic.value.DoubleValue
5.852

@<SCITEGIC>MOL_PROPERTY
Valence
SciTegic.value.DoubleValue
152.258

@<SCITEGIC>MOL_PROPERTY
Coulomb
SciTegic.value.DoubleValue
140.634

@<SCITEGIC>MOL_PROPERTY
VdW
SciTegic.value.DoubleValue
-29.336

@<SCITEGIC>MOL_PROPERTY
VdW6
SciTegic.value.DoubleValue
-182.850

@<SCITEGIC>MOL_PROPERTY
VdW12
SciTegic.value.DoubleValue
153.514

@<SCITEGIC>MOL_PROPERTY
Bond
SciTegic.value.DoubleValue
4.278

@<SCITEGIC>MOL_PROPERTY
Angle
SciTegic.value.DoubleValue
13.252

@<SCITEGIC>MOL_PROPERTY
Pdih
SciTegic.value.DoubleValue
134.727

@<SCITEGIC>MOL_PROPERTY
Idih
SciTegic.value.DoubleValue
0.002

@<SCITEGIC>MOL_PROPERTY
Tether
SciTegic.value.DoubleValue
0.000

@<TRIPOS>MOLECULE
CD_guest-s19_fast_vm2_rndm.mol2 : feprocess host+ligand conformer 160
         143         148           2
SMALL
USER_CHARGES
 
@<TRIPOS>ATOM
       1    C1      16.168995   15.192028   21.122474 C.3        1 MOL1         0.2972
       2    H1      15.151320   14.906810   20.827312 H          1 MOL1         0.0751
       3    O1      16.212393   16.572185   21.542229 O.3        1 MOL1        -0.3740
       4    C2      16.642442   14.281179   22.291237 C.3        1 MOL1         0.1003
       5    H2      16.618313   13.252028   21.909914 H          1 MOL1         0.0783
       6    O2      15.765779   14.355217   23.426609 O.3        1 MOL1        -0.5519
       7    H3      15.791223   15.278479   23.793583 H          1 MOL1         0.3769
       8    C3      18.105997   14.585993   22.693323 C.3        1 MOL1         0.1053
       9    H4      18.154255   15.604382   23.098030 H          1 MOL1         0.0783
      10    O3      18.541792   13.646674   23.681661 O.3        1 MOL1        -0.5519
      11    H5      17.791844   13.573454   24.313767 H          1 MOL1         0.3769
      12    C4      19.015096   14.504512   21.444492 C.3        1 MOL1         0.1018
      13    H6      19.051106   13.460916   21.104242 H          1 MOL1         0.0783
      14    C5      18.469628   15.382748   20.289955 C.3        1 MOL1         0.1043
      15    H7      18.507507   16.432557   20.610958 H          1 MOL1         0.0783
      16    O4      17.091299   15.010362   20.020996 O.3        1 MOL1        -0.3740
      17    C6      19.287834   15.266910   18.975133 C.3        1 MOL1         0.0138
      18    H8      20.089833   16.015424   19.001001 H          1 MOL1         0.0794
      19    H9      18.638415   15.526160   18.128932 H          1 MOL1         0.0794
      20    O5      19.852451   13.965444   18.769418 O.3        1 MOL1        -0.5486
      21    H10     20.558095   13.839560   19.445856 H          1 MOL1         0.3769
      22    C7      14.749862   20.382457   20.605095 C.3        1 MOL1         0.2972
      23    H11     14.190113   21.238372   20.206404 H          1 MOL1         0.0751
      24    O6      15.934936   20.799102   21.311487 O.3        1 MOL1        -0.3740
      25    C8      13.877674   19.566824   21.589729 C.3        1 MOL1         0.1003
      26    H12     12.988095   19.223269   21.046659 H          1 MOL1         0.0783
      27    O7      13.475656   20.411552   22.682589 O.3        1 MOL1        -0.5519
      28    H13     14.292481   20.846248   23.031578 H          1 MOL1         0.3769
      29    C9      14.648332   18.316195   22.094070 C.3        1 MOL1         0.1053
      30    H14     15.462457   18.685737   22.726082 H          1 MOL1         0.0783
      31    O8      13.785161   17.472935   22.867053 O.3        1 MOL1        -0.5519
      32    H15     14.346016   17.096143   23.593694 H          1 MOL1         0.3769
      33    C10     15.271345   17.489970   20.930070 C.3        1 MOL1         0.1018
      34    H16     14.457729   16.955424   20.422875 H          1 MOL1         0.0783
      35    C11     16.013916   18.405976   19.907125 C.3        1 MOL1         0.1043
      36    H17     16.918408   18.798727   20.390622 H          1 MOL1         0.0783
      37    O9      15.147839   19.504263   19.536794 O.3        1 MOL1        -0.3740
      38    C12     16.458941   17.739598   18.581386 C.3        1 MOL1         0.0138
      39    H18     17.477765   17.360945   18.706506 H          1 MOL1         0.0794
      40    H19     16.512308   18.513886   17.804320 H          1 MOL1         0.0794
      41    O10     15.590979   16.685008   18.153864 O.3        1 MOL1        -0.5486
      42    H20     15.876253   15.877544   18.640671 H          1 MOL1         0.3769
      43    C13     18.424539   24.042275   21.870560 C.3        1 MOL1         0.2972
      44    H21     18.867653   25.040117   21.981748 H          1 MOL1         0.0751
      45    O11     19.429019   23.007174   21.920916 O.3        1 MOL1        -0.3740
      46    C14     17.403490   23.806207   23.009855 C.3        1 MOL1         0.1003
      47    H22     16.633763   24.584779   22.929920 H          1 MOL1         0.0783
      48    O12     18.050000   23.907240   24.288735 O.3        1 MOL1        -0.5519
      49    H23     18.996124   23.650227   24.154222 H          1 MOL1         0.3769
      50    C15     16.708862   22.434132   22.860099 C.3        1 MOL1         0.1053
      51    H24     17.458135   21.662624   23.061968 H          1 MOL1         0.0783
      52    O13     15.642840   22.324929   23.809841 O.3        1 MOL1        -0.5519
      53    H25     16.039818   22.589418   24.669028 H          1 MOL1         0.3769
      54    C16     16.155258   22.217085   21.430238 C.3        1 MOL1         0.1018
      55    H26     15.222251   22.787723   21.332049 H          1 MOL1         0.0783
      56    C17     17.160928   22.634197   20.318344 C.3        1 MOL1         0.1043
      57    H27     17.962719   21.884723   20.295388 H          1 MOL1         0.0783
      58    O14     17.732543   23.935051   20.610679 O.3        1 MOL1        -0.3740
      59    C18     16.541343   22.690974   18.901096 C.3        1 MOL1         0.0138
      60    H28     16.352688   21.665021   18.558797 H          1 MOL1         0.0794
      61    H29     17.277176   23.130967   18.214642 H          1 MOL1         0.0794
      62    O15     15.323217   23.445331   18.873880 O.3        1 MOL1        -0.5486
      63    H30     15.025718   23.497037   17.939477 H          1 MOL1         0.3769
      64    C19     23.604181   22.672275   21.450474 C.3        1 MOL1         0.2972
      65    H31     24.651713   22.943083   21.267359 H          1 MOL1         0.0751
      66    O16     23.456020   21.255979   21.657072 O.3        1 MOL1        -0.3740
      67    C20     23.100838   23.379030   22.735623 C.3        1 MOL1         0.1003
      68    H32     23.236541   24.459150   22.594323 H          1 MOL1         0.0783
      69    O17     23.868179   22.948970   23.871688 O.3        1 MOL1        -0.5519
      70    H33     24.129176   22.011239   23.698269 H          1 MOL1         0.3769
      71    C21     21.593417   23.113330   22.969019 C.3        1 MOL1         0.1053
      72    H34     21.459757   22.045992   23.192152 H          1 MOL1         0.0783
      73    O18     21.132085   23.905266   24.069080 O.3        1 MOL1        -0.5519
      74    H35     21.805877   23.778724   24.773673 H          1 MOL1         0.3769
      75    C22     20.783018   23.450896   21.696362 C.3        1 MOL1         0.1018
      76    H36     20.837402   24.534959   21.530601 H          1 MOL1         0.0783
      77    C23     21.365155   22.725183   20.452616 C.3        1 MOL1         0.1043
      78    H37     21.261268   21.644225   20.602875 H          1 MOL1         0.0783
      79    O19     22.772019   23.062315   20.333956 O.3        1 MOL1        -0.3740
      80    C24     20.662875   23.065942   19.113138 C.3        1 MOL1         0.0138
      81    H38     19.796095   22.403473   18.996530 H          1 MOL1         0.0794
      82    H39     21.351401   22.837212   18.289008 H          1 MOL1         0.0794
      83    O20     20.236509   24.430446   19.030118 O.3        1 MOL1        -0.5486
      84    H40     19.383187   24.492353   19.519414 H          1 MOL1         0.3769
      85    C25     25.121249   17.567198   20.727145 C.3        1 MOL1         0.2972
      86    H41     25.738739   16.730107   20.379179 H          1 MOL1         0.0751
      87    O21     23.814154   17.127915   21.152933 O.3        1 MOL1        -0.3740
      88    C26     25.807152   18.328263   21.891515 C.3        1 MOL1         0.1003
      89    H42     26.737648   18.755206   21.495118 H          1 MOL1         0.0783
      90    O22     26.130522   17.453874   22.982102 O.3        1 MOL1        -0.5519
      91    H43     25.285496   17.033209   23.282631 H          1 MOL1         0.3769
      92    C27     24.912455   19.500852   22.364548 C.3        1 MOL1         0.1053
      93    H44     23.990905   19.082052   22.793162 H          1 MOL1         0.0783
      94    O23     25.604310   20.265832   23.357740 O.3        1 MOL1        -0.5519
      95    H45     25.994354   19.601722   23.968438 H          1 MOL1         0.3769
      96    C28     24.524701   20.417369   21.176143 C.3        1 MOL1         0.1018
      97    H46     25.411733   20.999684   20.894987 H          1 MOL1         0.0783
      98    C29     24.017011   19.610851   19.943718 C.3        1 MOL1         0.1043
      99    H47     23.038347   19.188087   20.190482 H          1 MOL1         0.0783
     100    O24     24.934947   18.523653   19.659504 O.3        1 MOL1        -0.3740
     101    C30     23.816197   20.440883   18.650577 C.3        1 MOL1         0.0138
     102    H48     22.808209   20.873898   18.670289 H          1 MOL1         0.0794
     103    H49     23.852080   19.759527   17.790126 H          1 MOL1         0.0794
     104    O25     24.781969   21.485536   18.490834 O.3        1 MOL1        -0.5486
     105    H50     24.421514   22.273501   18.956177 H          1 MOL1         0.3769
     106    C31     21.316300   13.972531   22.023511 C.3        1 MOL1         0.2972
     107    H51     20.851884   13.004321   22.252136 H          1 MOL1         0.0751
     108    O26     20.323491   14.992736   21.795314 O.3        1 MOL1        -0.3740
     109    C32     22.211353   14.411548   23.204224 C.3        1 MOL1         0.1003
     110    H52     22.993202   13.650872   23.327465 H          1 MOL1         0.0783
     111    O27     21.441180   14.500936   24.413865 O.3        1 MOL1        -0.5519
     112    H53     20.489597   14.477553   24.148125 H          1 MOL1         0.3769
     113    C33     22.898305   15.761131   22.897986 C.3        1 MOL1         0.1053
     114    H54     22.117721   16.528085   22.856017 H          1 MOL1         0.0783
     115    O28     23.812755   16.064197   23.954235 O.3        1 MOL1        -0.5519
     116    H55     23.305905   15.886320   24.778585 H          1 MOL1         0.3769
     117    C34     23.629958   15.748021   21.529504 C.3        1 MOL1         0.1018
     118    H56     24.582815   15.214660   21.638436 H          1 MOL1         0.0783
     119    C35     22.767760   15.108254   20.402312 C.3        1 MOL1         0.1043
     120    H57     21.981305   15.828756   20.146562 H          1 MOL1         0.0783
     121    O29     22.143739   13.875359   20.845550 O.3        1 MOL1        -0.3740
     122    C36     23.557072   14.817651   19.102820 C.3        1 MOL1         0.0138
     123    H58     23.889637   15.770809   18.669595 H          1 MOL1         0.0794
     124    H59     22.873125   14.356149   18.378038 H          1 MOL1         0.0794
     125    O30     24.682736   13.958048   19.324741 O.3        1 MOL1        -0.5486
     126    H60     25.352706   14.452997   19.839265 H          1 MOL1         0.3769
     127    C1      16.433472   17.549373   25.359854 C.2        1 MOL1         0.6173
     128    O1      16.460772   17.935095   26.512833 O.co2      1 MOL1        -0.6755
     129    O2      15.634543   16.734510   24.933235 O.co2      1 MOL1        -0.6755
     130    C2      17.396577   18.096545   24.374109 C.2        1 MOL1        -0.1504
     131    H1      17.311467   17.691001   23.376052 H          1 MOL1         0.0814
     132    C3      18.330190   19.041430   24.608587 C.2        1 MOL1        -0.1394
     133    H2      18.458726   19.491369   25.592341 H          1 MOL1         0.0817
     134    C4      19.221169   19.547697   23.496169 C.3        1 MOL1        -0.1849
     135    H3      19.815436   20.405937   23.835271 H          1 MOL1         0.0736
     136    H4      18.589848   19.903729   22.673099 H          1 MOL1         0.0736
     137    C5      20.146174   18.440294   22.955584 C.3        1 MOL1        -0.1866
     138    H5      20.946333   18.247205   23.682225 H          1 MOL1         0.0738
     139    H6      19.590692   17.502097   22.836758 H          1 MOL1         0.0738
     140    C6      20.739797   18.829007   21.592139 C.3        1 MOL1        -0.2879
     141    H7      21.391205   19.700467   21.704135 H          1 MOL1         0.0750
     142    H8      21.327855   18.002457   21.179524 H          1 MOL1         0.0750
     143    H9      19.950319   19.073177   20.870113 H          1 MOL1         0.0750
@<TRIPOS>BOND
    1     1     2    1
    2     1     3    1
    3     1     4    1
    4     4     5    1
    5     4     6    1
    6     6     7    1
    7     4     8    1
    8     8     9    1
    9     8    10    1
   10    10    11    1
   11     8    12    1
   12    12    13    1
   13    12    14    1
   14    14    15    1
   15     1    16    1
   16    14    16    1
   17    14    17    1
   18    17    18    1
   19    17    19    1
   20    17    20    1
   21    20    21    1
   22    22    23    1
   23    22    24    1
   24    22    25    1
   25    25    26    1
   26    25    27    1
   27    27    28    1
   28    25    29    1
   29    29    30    1
   30    29    31    1
   31    31    32    1
   32     3    33    1
   33    29    33    1
   34    33    34    1
   35    33    35    1
   36    35    36    1
   37    22    37    1
   38    35    37    1
   39    35    38    1
   40    38    39    1
   41    38    40    1
   42    38    41    1
   43    41    42    1
   44    43    44    1
   45    43    45    1
   46    43    46    1
   47    46    47    1
   48    46    48    1
   49    48    49    1
   50    46    50    1
   51    50    51    1
   52    50    52    1
   53    52    53    1
   54    24    54    1
   55    50    54    1
   56    54    55    1
   57    54    56    1
   58    56    57    1
   59    43    58    1
   60    56    58    1
   61    56    59    1
   62    59    60    1
   63    59    61    1
   64    59    62    1
   65    62    63    1
   66    64    65    1
   67    64    66    1
   68    64    67    1
   69    67    68    1
   70    67    69    1
   71    69    70    1
   72    67    71    1
   73    71    72    1
   74    71    73    1
   75    73    74    1
   76    45    75    1
   77    71    75    1
   78    75    76    1
   79    75    77    1
   80    77    78    1
   81    64    79    1
   82    77    79    1
   83    77    80    1
   84    80    81    1
   85    80    82    1
   86    80    83    1
   87    83    84    1
   88    85    86    1
   89    85    87    1
   90    85    88    1
   91    88    89    1
   92    88    90    1
   93    90    91    1
   94    88    92    1
   95    92    93    1
   96    92    94    1
   97    94    95    1
   98    66    96    1
   99    92    96    1
  100    96    97    1
  101    96    98    1
  102    98    99    1
  103    85   100    1
  104    98   100    1
  105    98   101    1
  106   101   102    1
  107   101   103    1
  108   101   104    1
  109   104   105    1
  110   106   107    1
  111    12   108    1
  112   106   108    1
  113   106   109    1
  114   109   110    1
  115   109   111    1
  116   111   112    1
  117   109   113    1
  118   113   114    1
  119   113   115    1
  120   115   116    1
  121    87   117    1
  122   113   117    1
  123   117   118    1
  124   117   119    1
  125   119   120    1
  126   106   121    1
  127   119   121    1
  128   119   122    1
  129   122   123    1
  130   122   124    1
  131   122   125    1
  132   125   126    1
  133   127   128    1
  134   127   129    2
  135   127   130    1
  136   130   131    1
  137   130   132    2
  138   132   133    1
  139   132   134    1
  140   134   135    1
  141   134   136    1
  142   134   137    1
  143   137   138    1
  144   137   139    1
  145   137   140    1
  146   140   141    1
  147   140   142    1
  148   140   143    1
@<TRIPOS>SUBSTRUCTURE
       1 MOL1            1 RESIDUE      1      MOL     
       2 MOL1          143 RESIDUE      1      MOL     
@<SCITEGIC>MOL_PROPERTY
feprocess Rank
SciTegic.value.IntegerValue
160

@<SCITEGIC>MOL_PROPERTY
Conf_Id
SciTegic.value.IntegerValue
722

@<SCITEGIC>MOL_PROPERTY
Probability
SciTegic.value.DoubleValue
0.00

@<SCITEGIC>MOL_PROPERTY
G
SciTegic.value.DoubleValue
504.417

@<SCITEGIC>MOL_PROPERTY
E
SciTegic.value.DoubleValue
322.902

@<SCITEGIC>MOL_PROPERTY
-TS
SciTegic.value.DoubleValue
181.515

@<SCITEGIC>MOL_PROPERTY
U+W
SciTegic.value.DoubleValue
196.814

@<SCITEGIC>MOL_PROPERTY
U
SciTegic.value.DoubleValue
281.138

@<SCITEGIC>MOL_PROPERTY
W
SciTegic.value.DoubleValue
-84.324

@<SCITEGIC>MOL_PROPERTY
W(PB)
SciTegic.value.DoubleValue
-90.408

@<SCITEGIC>MOL_PROPERTY
W(SA)
SciTegic.value.DoubleValue
6.084

@<SCITEGIC>MOL_PROPERTY
Valence
SciTegic.value.DoubleValue
153.975

@<SCITEGIC>MOL_PROPERTY
Coulomb
SciTegic.value.DoubleValue
149.983

@<SCITEGIC>MOL_PROPERTY
VdW
SciTegic.value.DoubleValue
-22.819

@<SCITEGIC>MOL_PROPERTY
VdW6
SciTegic.value.DoubleValue
-176.593

@<SCITEGIC>MOL_PROPERTY
VdW12
SciTegic.value.DoubleValue
153.774

@<SCITEGIC>MOL_PROPERTY
Bond
SciTegic.value.DoubleValue
5.081

@<SCITEGIC>MOL_PROPERTY
Angle
SciTegic.value.DoubleValue
15.186

@<SCITEGIC>MOL_PROPERTY
Pdih
SciTegic.value.DoubleValue
133.704

@<SCITEGIC>MOL_PROPERTY
Idih
SciTegic.value.DoubleValue
0.003

@<SCITEGIC>MOL_PROPERTY
Tether
SciTegic.value.DoubleValue
0.000

@<TRIPOS>MOLECULE
CD_guest-s19_fast_vm2_rndm.mol2 : feprocess host+ligand conformer 161
         143         148           2
SMALL
USER_CHARGES
 
@<TRIPOS>ATOM
       1    C1      16.118075   15.081162   20.851834 C.3        1 MOL1         0.2972
       2    H1      15.093569   14.887114   20.509741 H          1 MOL1         0.0751
       3    O1      16.262967   16.414776   21.371930 O.3        1 MOL1        -0.3740
       4    C2      16.486552   14.111126   22.000922 C.3        1 MOL1         0.1003
       5    H2      16.412173   13.087085   21.612526 H          1 MOL1         0.0783
       6    O2      15.573016   14.277238   23.097242 O.3        1 MOL1        -0.5519
       7    H3      15.362709   15.242126   23.144836 H          1 MOL1         0.3769
       8    C3      17.941822   14.345599   22.474564 C.3        1 MOL1         0.1053
       9    H4      17.984224   15.327060   22.962800 H          1 MOL1         0.0783
      10    O3      18.308989   13.330553   23.413342 O.3        1 MOL1        -0.5519
      11    H5      17.551746   13.271268   24.037227 H          1 MOL1         0.3769
      12    C4      18.930071   14.352806   21.280409 C.3        1 MOL1         0.1018
      13    H6      19.054732   13.322207   20.922803 H          1 MOL1         0.0783
      14    C5      18.438906   15.242554   20.104432 C.3        1 MOL1         0.1043
      15    H7      18.483313   16.290353   20.428412 H          1 MOL1         0.0783
      16    O4      17.067701   14.899170   19.779079 O.3        1 MOL1        -0.3740
      17    C6      19.294554   15.136375   18.814231 C.3        1 MOL1         0.0138
      18    H8      20.075236   15.905849   18.851261 H          1 MOL1         0.0794
      19    H9      18.659379   15.376475   17.951193 H          1 MOL1         0.0794
      20    O5      19.895853   13.847748   18.633788 O.3        1 MOL1        -0.5486
      21    H10     20.568173   13.733152   19.345035 H          1 MOL1         0.3769
      22    C7      14.778707   20.291898   20.987444 C.3        1 MOL1         0.2972
      23    H11     14.145536   21.156556   20.751885 H          1 MOL1         0.0751
      24    O6      16.038171   20.696532   21.560407 O.3        1 MOL1        -0.3740
      25    C8      14.055636   19.385393   22.013768 C.3        1 MOL1         0.1003
      26    H12     13.092864   19.091769   21.575797 H          1 MOL1         0.0783
      27    O7      13.823718   20.105092   23.235667 O.3        1 MOL1        -0.5519
      28    H13     14.601833   20.702221   23.369455 H          1 MOL1         0.3769
      29    C9      14.866109   18.097785   22.291397 C.3        1 MOL1         0.1053
      30    H14     15.778839   18.383049   22.828963 H          1 MOL1         0.0783
      31    O8      14.089277   17.204983   23.098106 O.3        1 MOL1        -0.5519
      32    H15     13.737725   17.761157   23.828081 H          1 MOL1         0.3769
      33    C10     15.285477   17.393306   20.978343 C.3        1 MOL1         0.1018
      34    H16     14.396109   16.933178   20.528248 H          1 MOL1         0.0783
      35    C11     15.936691   18.390875   19.977135 C.3        1 MOL1         0.1043
      36    H17     16.884562   18.737873   20.410017 H          1 MOL1         0.0783
      37    O9      15.048164   19.522299   19.796523 O.3        1 MOL1        -0.3740
      38    C12     16.265857   17.812047   18.577429 C.3        1 MOL1         0.0138
      39    H18     17.269535   17.371235   18.609062 H          1 MOL1         0.0794
      40    H19     16.307706   18.640671   17.858121 H          1 MOL1         0.0794
      41    O10     15.323946   16.829490   18.135004 O.3        1 MOL1        -0.5486
      42    H20     15.638979   15.964761   18.482361 H          1 MOL1         0.3769
      43    C13     18.508312   24.100815   21.630915 C.3        1 MOL1         0.2972
      44    H21     18.846321   25.140757   21.538476 H          1 MOL1         0.0751
      45    O11     19.590760   23.227833   22.005998 O.3        1 MOL1        -0.3740
      46    C14     17.424270   24.005529   22.734604 C.3        1 MOL1         0.1003
      47    H22     16.613334   24.693850   22.463241 H          1 MOL1         0.0783
      48    O12     17.974878   24.395198   24.003052 O.3        1 MOL1        -0.5519
      49    H23     18.917492   24.098022   24.004219 H          1 MOL1         0.3769
      50    C15     16.831944   22.578275   22.817860 C.3        1 MOL1         0.1053
      51    H24     17.618713   21.904181   23.181523 H          1 MOL1         0.0783
      52    O13     15.721677   22.571104   23.722679 O.3        1 MOL1        -0.5519
      53    H25     16.042787   23.039559   24.524703 H          1 MOL1         0.3769
      54    C16     16.376661   22.090662   21.422328 C.3        1 MOL1         0.1018
      55    H26     15.512223   22.693856   21.115035 H          1 MOL1         0.0783
      56    C17     17.515069   22.248907   20.376903 C.3        1 MOL1         0.1043
      57    H27     18.347681   21.598204   20.675368 H          1 MOL1         0.0783
      58    O14     17.955755   23.630881   20.381409 O.3        1 MOL1        -0.3740
      59    C18     17.135963   21.864346   18.924201 C.3        1 MOL1         0.0138
      60    H28     17.255330   20.779518   18.809650 H          1 MOL1         0.0794
      61    H29     17.850492   22.337741   18.238293 H          1 MOL1         0.0794
      62    O15     15.800732   22.240055   18.571270 O.3        1 MOL1        -0.5486
      63    H30     15.230384   21.464779   18.774354 H          1 MOL1         0.3769
      64    C19     23.734108   22.829779   21.619415 C.3        1 MOL1         0.2972
      65    H31     24.800802   23.031453   21.460023 H          1 MOL1         0.0751
      66    O16     23.504230   21.423258   21.843984 O.3        1 MOL1        -0.3740
      67    C20     23.234531   23.646813   22.842744 C.3        1 MOL1         0.1003
      68    H32     23.423755   24.703753   22.615054 H          1 MOL1         0.0783
      69    O17     23.949837   23.297148   24.035905 O.3        1 MOL1        -0.5519
      70    H33     23.678102   22.367707   24.269195 H          1 MOL1         0.3769
      71    C21     21.713438   23.479281   23.064820 C.3        1 MOL1         0.1053
      72    H34     21.527774   22.452511   23.400363 H          1 MOL1         0.0783
      73    O18     21.271153   24.397311   24.071360 O.3        1 MOL1        -0.5519
      74    H35     21.903896   24.285515   24.814986 H          1 MOL1         0.3769
      75    C22     20.922466   23.722409   21.757845 C.3        1 MOL1         0.1018
      76    H36     20.930773   24.801241   21.554566 H          1 MOL1         0.0783
      77    C23     21.536576   22.960050   20.548907 C.3        1 MOL1         0.1043
      78    H37     21.387980   21.885448   20.718244 H          1 MOL1         0.0783
      79    O19     22.958746   23.241004   20.472286 O.3        1 MOL1        -0.3740
      80    C24     20.909776   23.296374   19.170228 C.3        1 MOL1         0.0138
      81    H38     20.056308   22.627952   19.004772 H          1 MOL1         0.0794
      82    H39     21.644110   23.072417   18.385500 H          1 MOL1         0.0794
      83    O20     20.483753   24.657709   19.054375 O.3        1 MOL1        -0.5486
      84    H40     19.549401   24.683477   19.362154 H          1 MOL1         0.3769
      85    C25     24.863842   17.636212   20.654785 C.3        1 MOL1         0.2972
      86    H41     25.425187   16.797912   20.222612 H          1 MOL1         0.0751
      87    O21     23.568550   17.215248   21.131553 O.3        1 MOL1        -0.3740
      88    C26     25.653675   18.304812   21.810637 C.3        1 MOL1         0.1003
      89    H42     26.583131   18.703762   21.384872 H          1 MOL1         0.0783
      90    O22     25.986015   17.343991   22.824634 O.3        1 MOL1        -0.5519
      91    H43     25.136547   17.069858   23.252018 H          1 MOL1         0.3769
      92    C27     24.841119   19.497778   22.380274 C.3        1 MOL1         0.1053
      93    H44     23.917778   19.092726   22.812445 H          1 MOL1         0.0783
      94    O23     25.579024   20.186866   23.394258 O.3        1 MOL1        -0.5519
      95    H45     24.885097   20.556807   23.998053 H          1 MOL1         0.3769
      96    C28     24.449528   20.497151   21.257398 C.3        1 MOL1         0.1018
      97    H46     25.362746   21.007982   20.925771 H          1 MOL1         0.0783
      98    C29     23.795576   19.758146   20.049010 C.3        1 MOL1         0.1043
      99    H47     22.817828   19.375619   20.371121 H          1 MOL1         0.0783
     100    O24     24.642251   18.649306   19.653373 O.3        1 MOL1        -0.3740
     101    C30     23.553755   20.609596   18.777938 C.3        1 MOL1         0.0138
     102    H48     22.555565   21.054024   18.842239 H          1 MOL1         0.0794
     103    H49     23.538720   19.938995   17.908338 H          1 MOL1         0.0794
     104    O25     24.534442   21.633962   18.584015 O.3        1 MOL1        -0.5486
     105    H50     24.250022   22.398145   19.136807 H          1 MOL1         0.3769
     106    C31     21.210971   13.956598   22.032355 C.3        1 MOL1         0.2972
     107    H51     20.794243   12.971549   22.280302 H          1 MOL1         0.0751
     108    O26     20.168859   14.911727   21.755142 O.3        1 MOL1        -0.3740
     109    C32     22.048344   14.484041   23.221337 C.3        1 MOL1         0.1003
     110    H52     22.864894   13.771370   23.395665 H          1 MOL1         0.0783
     111    O27     21.233015   14.572235   24.399998 O.3        1 MOL1        -0.5519
     112    H53     20.304614   14.667451   24.086339 H          1 MOL1         0.3769
     113    C33     22.674067   15.858441   22.892366 C.3        1 MOL1         0.1053
     114    H54     21.861461   16.591806   22.820622 H          1 MOL1         0.0783
     115    O28     23.569026   16.229024   23.945499 O.3        1 MOL1        -0.5519
     116    H55     23.039347   16.169783   24.771132 H          1 MOL1         0.3769
     117    C34     23.427492   15.839655   21.537771 C.3        1 MOL1         0.1018
     118    H56     24.398681   15.346619   21.678046 H          1 MOL1         0.0783
     119    C35     22.622303   15.133215   20.411028 C.3        1 MOL1         0.1043
     120    H57     21.802691   15.805082   20.131707 H          1 MOL1         0.0783
     121    O29     22.064464   13.875315   20.871818 O.3        1 MOL1        -0.3740
     122    C36     23.449913   14.864128   19.131403 C.3        1 MOL1         0.0138
     123    H58     23.654392   15.824954   18.639930 H          1 MOL1         0.0794
     124    H59     22.842294   14.267106   18.438090 H          1 MOL1         0.0794
     125    O30     24.682876   14.193006   19.418321 O.3        1 MOL1        -0.5486
     126    H60     25.114681   13.983061   18.561587 H          1 MOL1         0.3769
     127    C1      22.655899   19.683844   25.205065 C.2        1 MOL1         0.6173
     128    O1      23.130541   20.735445   24.809478 O.co2      1 MOL1        -0.6755
     129    O2      23.017490   19.141421   26.231011 O.co2      1 MOL1        -0.6755
     130    C2      21.612271   18.988263   24.399415 C.2        1 MOL1        -0.1504
     131    H1      21.270370   18.040433   24.804869 H          1 MOL1         0.0814
     132    C3      21.098757   19.469091   23.241910 C.2        1 MOL1        -0.1394
     133    H2      21.448020   20.415373   22.846496 H          1 MOL1         0.0817
     134    C4      20.045258   18.792705   22.383840 C.3        1 MOL1        -0.1849
     135    H3      20.537707   18.114385   21.675234 H          1 MOL1         0.0736
     136    H4      19.539612   19.552377   21.773614 H          1 MOL1         0.0736
     137    C5      18.978540   18.004951   23.176240 C.3        1 MOL1        -0.1866
     138    H5      18.287637   17.547126   22.461554 H          1 MOL1         0.0738
     139    H6      19.448953   17.179232   23.725484 H          1 MOL1         0.0738
     140    C6      18.168405   18.888479   24.147217 C.3        1 MOL1        -0.2879
     141    H7      17.646601   19.684319   23.604508 H          1 MOL1         0.0750
     142    H8      17.416489   18.289645   24.676487 H          1 MOL1         0.0750
     143    H9      18.816548   19.355588   24.899163 H          1 MOL1         0.0750
@<TRIPOS>BOND
    1     1     2    1
    2     1     3    1
    3     1     4    1
    4     4     5    1
    5     4     6    1
    6     6     7    1
    7     4     8    1
    8     8     9    1
    9     8    10    1
   10    10    11    1
   11     8    12    1
   12    12    13    1
   13    12    14    1
   14    14    15    1
   15     1    16    1
   16    14    16    1
   17    14    17    1
   18    17    18    1
   19    17    19    1
   20    17    20    1
   21    20    21    1
   22    22    23    1
   23    22    24    1
   24    22    25    1
   25    25    26    1
   26    25    27    1
   27    27    28    1
   28    25    29    1
   29    29    30    1
   30    29    31    1
   31    31    32    1
   32     3    33    1
   33    29    33    1
   34    33    34    1
   35    33    35    1
   36    35    36    1
   37    22    37    1
   38    35    37    1
   39    35    38    1
   40    38    39    1
   41    38    40    1
   42    38    41    1
   43    41    42    1
   44    43    44    1
   45    43    45    1
   46    43    46    1
   47    46    47    1
   48    46    48    1
   49    48    49    1
   50    46    50    1
   51    50    51    1
   52    50    52    1
   53    52    53    1
   54    24    54    1
   55    50    54    1
   56    54    55    1
   57    54    56    1
   58    56    57    1
   59    43    58    1
   60    56    58    1
   61    56    59    1
   62    59    60    1
   63    59    61    1
   64    59    62    1
   65    62    63    1
   66    64    65    1
   67    64    66    1
   68    64    67    1
   69    67    68    1
   70    67    69    1
   71    69    70    1
   72    67    71    1
   73    71    72    1
   74    71    73    1
   75    73    74    1
   76    45    75    1
   77    71    75    1
   78    75    76    1
   79    75    77    1
   80    77    78    1
   81    64    79    1
   82    77    79    1
   83    77    80    1
   84    80    81    1
   85    80    82    1
   86    80    83    1
   87    83    84    1
   88    85    86    1
   89    85    87    1
   90    85    88    1
   91    88    89    1
   92    88    90    1
   93    90    91    1
   94    88    92    1
   95    92    93    1
   96    92    94    1
   97    94    95    1
   98    66    96    1
   99    92    96    1
  100    96    97    1
  101    96    98    1
  102    98    99    1
  103    85   100    1
  104    98   100    1
  105    98   101    1
  106   101   102    1
  107   101   103    1
  108   101   104    1
  109   104   105    1
  110   106   107    1
  111    12   108    1
  112   106   108    1
  113   106   109    1
  114   109   110    1
  115   109   111    1
  116   111   112    1
  117   109   113    1
  118   113   114    1
  119   113   115    1
  120   115   116    1
  121    87   117    1
  122   113   117    1
  123   117   118    1
  124   117   119    1
  125   119   120    1
  126   106   121    1
  127   119   121    1
  128   119   122    1
  129   122   123    1
  130   122   124    1
  131   122   125    1
  132   125   126    1
  133   127   128    1
  134   127   129    2
  135   127   130    1
  136   130   131    1
  137   130   132    2
  138   132   133    1
  139   132   134    1
  140   134   135    1
  141   134   136    1
  142   134   137    1
  143   137   138    1
  144   137   139    1
  145   137   140    1
  146   140   141    1
  147   140   142    1
  148   140   143    1
@<TRIPOS>SUBSTRUCTURE
       1 MOL1            1 RESIDUE      1      MOL     
       2 MOL1          143 RESIDUE      1      MOL     
@<SCITEGIC>MOL_PROPERTY
feprocess Rank
SciTegic.value.IntegerValue
161

@<SCITEGIC>MOL_PROPERTY
Conf_Id
SciTegic.value.IntegerValue
203

@<SCITEGIC>MOL_PROPERTY
Probability
SciTegic.value.DoubleValue
0.00

@<SCITEGIC>MOL_PROPERTY
G
SciTegic.value.DoubleValue
504.427

@<SCITEGIC>MOL_PROPERTY
E
SciTegic.value.DoubleValue
322.760

@<SCITEGIC>MOL_PROPERTY
-TS
SciTegic.value.DoubleValue
181.667

@<SCITEGIC>MOL_PROPERTY
U+W
SciTegic.value.DoubleValue
196.672

@<SCITEGIC>MOL_PROPERTY
U
SciTegic.value.DoubleValue
277.480

@<SCITEGIC>MOL_PROPERTY
W
SciTegic.value.DoubleValue
-80.808

@<SCITEGIC>MOL_PROPERTY
W(PB)
SciTegic.value.DoubleValue
-86.842

@<SCITEGIC>MOL_PROPERTY
W(SA)
SciTegic.value.DoubleValue
6.033

@<SCITEGIC>MOL_PROPERTY
Valence
SciTegic.value.DoubleValue
152.647

@<SCITEGIC>MOL_PROPERTY
Coulomb
SciTegic.value.DoubleValue
149.581

@<SCITEGIC>MOL_PROPERTY
VdW
SciTegic.value.DoubleValue
-24.748

@<SCITEGIC>MOL_PROPERTY
VdW6
SciTegic.value.DoubleValue
-181.822

@<SCITEGIC>MOL_PROPERTY
VdW12
SciTegic.value.DoubleValue
157.075

@<SCITEGIC>MOL_PROPERTY
Bond
SciTegic.value.DoubleValue
4.873

@<SCITEGIC>MOL_PROPERTY
Angle
SciTegic.value.DoubleValue
14.711

@<SCITEGIC>MOL_PROPERTY
Pdih
SciTegic.value.DoubleValue
133.060

@<SCITEGIC>MOL_PROPERTY
Idih
SciTegic.value.DoubleValue
0.002

@<SCITEGIC>MOL_PROPERTY
Tether
SciTegic.value.DoubleValue
0.000

@<TRIPOS>MOLECULE
CD_guest-s19_fast_vm2_rndm.mol2 : feprocess host+ligand conformer 162
         143         148           2
SMALL
USER_CHARGES
 
@<TRIPOS>ATOM
       1    C1      16.195496   15.341470   21.877237 C.3        1 MOL1         0.2972
       2    H1      15.107305   15.205204   21.928249 H          1 MOL1         0.0751
       3    O1      16.530546   16.727048   21.677212 O.3        1 MOL1        -0.3740
       4    C2      16.840204   14.860060   23.201461 C.3        1 MOL1         0.1003
       5    H2      16.579773   13.801577   23.331033 H          1 MOL1         0.0783
       6    O2      16.327470   15.614077   24.309207 O.3        1 MOL1        -0.5519
       7    H3      16.268874   16.546039   23.999817 H          1 MOL1         0.3769
       8    C3      18.380166   14.969953   23.145399 C.3        1 MOL1         0.1053
       9    H4      18.646333   16.035299   23.102844 H          1 MOL1         0.0783
      10    O3      18.949243   14.371038   24.316192 O.3        1 MOL1        -0.5519
      11    H5      18.440639   14.747477   25.067817 H          1 MOL1         0.3769
      12    C4      18.944644   14.279646   21.883452 C.3        1 MOL1         0.1018
      13    H6      18.883420   13.191704   22.018735 H          1 MOL1         0.0783
      14    C5      18.191409   14.712725   20.595488 C.3        1 MOL1         0.1043
      15    H7      18.446735   15.764009   20.412701 H          1 MOL1         0.0783
      16    O4      16.756636   14.584327   20.783804 O.3        1 MOL1        -0.3740
      17    C6      18.577138   13.906918   19.331167 C.3        1 MOL1         0.0138
      18    H8      19.575253   14.223347   19.003214 H          1 MOL1         0.0794
      19    H9      17.880539   14.164663   18.522633 H          1 MOL1         0.0794
      20    O5      18.561601   12.493166   19.566795 O.3        1 MOL1        -0.5486
      21    H10     18.757198   12.047586   18.714016 H          1 MOL1         0.3769
      22    C7      15.108388   20.266205   20.086868 C.3        1 MOL1         0.2972
      23    H11     14.611434   21.078765   19.541484 H          1 MOL1         0.0751
      24    O6      16.277344   20.727339   20.789254 O.3        1 MOL1        -0.3740
      25    C8      14.150940   19.595921   21.103627 C.3        1 MOL1         0.1003
      26    H12     13.328711   19.148014   20.530550 H          1 MOL1         0.0783
      27    O7      13.610153   20.549823   22.030624 O.3        1 MOL1        -0.5519
      28    H13     14.377391   20.965730   22.500199 H          1 MOL1         0.3769
      29    C9      14.882925   18.460239   21.859149 C.3        1 MOL1         0.1053
      30    H14     15.649831   18.919761   22.496531 H          1 MOL1         0.0783
      31    O8      13.941016   17.751718   22.670847 O.3        1 MOL1        -0.5519
      32    H15     13.429070   18.446517   23.140286 H          1 MOL1         0.3769
      33    C10     15.586707   17.477142   20.884813 C.3        1 MOL1         0.1018
      34    H16     14.816809   16.830753   20.444081 H          1 MOL1         0.0783
      35    C11     16.363541   18.195288   19.738833 C.3        1 MOL1         0.1043
      36    H17     17.269296   18.646122   20.164453 H          1 MOL1         0.0783
      37    O9      15.527599   19.234814   19.171308 O.3        1 MOL1        -0.3740
      38    C12     16.822019   17.279603   18.573106 C.3        1 MOL1         0.0138
      39    H18     17.835748   16.921133   18.782775 H          1 MOL1         0.0794
      40    H19     16.899090   17.889772   17.663386 H          1 MOL1         0.0794
      41    O10     15.947031   16.167076   18.343872 O.3        1 MOL1        -0.5486
      42    H20     16.067614   15.544902   19.098851 H          1 MOL1         0.3769
      43    C13     18.409397   24.075295   21.878987 C.3        1 MOL1         0.2972
      44    H21     18.772378   25.079591   22.132423 H          1 MOL1         0.0751
      45    O11     19.471869   23.106781   21.879118 O.3        1 MOL1        -0.3740
      46    C14     17.364811   23.614288   22.921704 C.3        1 MOL1         0.1003
      47    H22     16.521346   24.315726   22.881970 H          1 MOL1         0.0783
      48    O12     17.935205   23.628293   24.240497 O.3        1 MOL1        -0.5519
      49    H23     18.908154   23.488074   24.133104 H          1 MOL1         0.3769
      50    C15     16.834144   22.204055   22.575221 C.3        1 MOL1         0.1053
      51    H24     17.656216   21.486164   22.698468 H          1 MOL1         0.0783
      52    O13     15.765643   21.872716   23.468315 O.3        1 MOL1        -0.5519
      53    H25     16.115966   22.077240   24.363820 H          1 MOL1         0.3769
      54    C16     16.349478   22.126570   21.106174 C.3        1 MOL1         0.1018
      55    H26     15.372658   22.621814   21.026148 H          1 MOL1         0.0783
      56    C17     17.360171   22.758207   20.106983 C.3        1 MOL1         0.1043
      57    H27     18.228676   22.089324   20.047263 H          1 MOL1         0.0783
      58    O14     17.792286   24.062881   20.575237 O.3        1 MOL1        -0.3740
      59    C18     16.806457   22.907226   18.670531 C.3        1 MOL1         0.0138
      60    H28     16.726050   21.906076   18.225180 H          1 MOL1         0.0794
      61    H29     17.533885   23.471478   18.071717 H          1 MOL1         0.0794
      62    O15     15.528832   23.556613   18.648108 O.3        1 MOL1        -0.5486
      63    H30     15.277702   23.687137   17.707788 H          1 MOL1         0.3769
      64    C19     23.598455   22.758408   21.653669 C.3        1 MOL1         0.2972
      65    H31     24.676304   22.942631   21.558870 H          1 MOL1         0.0751
      66    O16     23.304077   21.353802   21.770637 O.3        1 MOL1        -0.3740
      67    C20     23.057254   23.453331   22.926794 C.3        1 MOL1         0.1003
      68    H32     23.234678   24.531338   22.819718 H          1 MOL1         0.0783
      69    O17     23.742846   22.972052   24.093906 O.3        1 MOL1        -0.5519
      70    H33     24.073671   22.064594   23.878671 H          1 MOL1         0.3769
      71    C21     21.533960   23.227413   23.060239 C.3        1 MOL1         0.1053
      72    H34     21.358840   22.157559   23.241451 H          1 MOL1         0.0783
      73    O18     21.026850   23.992000   24.159105 O.3        1 MOL1        -0.5519
      74    H35     21.658752   23.827962   24.894284 H          1 MOL1         0.3769
      75    C22     20.804451   23.625092   21.754936 C.3        1 MOL1         0.1018
      76    H36     20.819795   24.719028   21.663243 H          1 MOL1         0.0783
      77    C23     21.460146   22.991457   20.494563 C.3        1 MOL1         0.1043
      78    H37     21.308279   21.907723   20.539888 H          1 MOL1         0.0783
      79    O19     22.884291   23.271102   20.506263 O.3        1 MOL1        -0.3740
      80    C24     20.866974   23.459356   19.140531 C.3        1 MOL1         0.0138
      81    H38     20.039731   22.788619   18.875116 H          1 MOL1         0.0794
      82    H39     21.631752   23.337061   18.362198 H          1 MOL1         0.0794
      83    O20     20.397950   24.812701   19.164167 O.3        1 MOL1        -0.5486
      84    H40     19.514633   24.797416   19.600716 H          1 MOL1         0.3769
      85    C25     25.033841   17.628343   21.042496 C.3        1 MOL1         0.2972
      86    H41     25.715652   16.827611   20.729153 H          1 MOL1         0.0751
      87    O21     23.811676   17.102196   21.588989 O.3        1 MOL1        -0.3740
      88    C26     25.695052   18.473832   22.158640 C.3        1 MOL1         0.1003
      89    H42     26.629097   18.887497   21.756795 H          1 MOL1         0.0783
      90    O22     25.987108   17.648152   23.297743 O.3        1 MOL1        -0.5519
      91    H43     25.249864   16.992736   23.367427 H          1 MOL1         0.3769
      92    C27     24.780913   19.652897   22.568203 C.3        1 MOL1         0.1053
      93    H44     23.884146   19.242567   23.053078 H          1 MOL1         0.0783
      94    O23     25.478437   20.507556   23.480813 O.3        1 MOL1        -0.5519
      95    H45     25.891113   19.900126   24.134566 H          1 MOL1         0.3769
      96    C28     24.332288   20.455817   21.324792 C.3        1 MOL1         0.1018
      97    H46     25.202116   20.989657   20.919916 H          1 MOL1         0.0783
      98    C29     23.741147   19.533672   20.222894 C.3        1 MOL1         0.1043
      99    H47     22.818175   19.079679   20.607098 H          1 MOL1         0.0783
     100    O24     24.706733   18.491187   19.930327 O.3        1 MOL1        -0.3740
     101    C30     23.373014   20.255301   18.900131 C.3        1 MOL1         0.0138
     102    H48     22.344770   20.628957   18.980364 H          1 MOL1         0.0794
     103    H49     23.376332   19.518646   18.086079 H          1 MOL1         0.0794
     104    O25     24.252674   21.341437   18.585450 O.3        1 MOL1        -0.5486
     105    H50     23.966466   22.106535   19.136016 H          1 MOL1         0.3769
     106    C31     21.279035   13.805450   21.287923 C.3        1 MOL1         0.2972
     107    H51     20.840533   12.819487   21.087214 H          1 MOL1         0.0751
     108    O26     20.303625   14.735327   21.789324 O.3        1 MOL1        -0.3740
     109    C32     22.385334   13.707392   22.367374 C.3        1 MOL1         0.1003
     110    H52     23.148792   13.008810   22.001342 H          1 MOL1         0.0783
     111    O27     21.835588   13.217894   23.602320 O.3        1 MOL1        -0.5519
     112    H53     20.995178   13.717377   23.758466 H          1 MOL1         0.3769
     113    C33     23.055893   15.086015   22.593996 C.3        1 MOL1         0.1053
     114    H54     22.319466   15.749143   23.069617 H          1 MOL1         0.0783
     115    O28     24.191495   14.931240   23.453407 O.3        1 MOL1        -0.5519
     116    H55     23.873754   14.380227   24.202529 H          1 MOL1         0.3769
     117    C34     23.491839   15.739587   21.258818 C.3        1 MOL1         0.1018
     118    H56     24.362259   15.191959   20.874463 H          1 MOL1         0.0783
     119    C35     22.348958   15.717451   20.204148 C.3        1 MOL1         0.1043
     120    H57     21.539798   16.365451   20.558028 H          1 MOL1         0.0783
     121    O29     21.863997   14.358186   20.088945 O.3        1 MOL1        -0.3740
     122    C36     22.720405   16.223527   18.788430 C.3        1 MOL1         0.0138
     123    H58     22.562649   17.309293   18.758814 H          1 MOL1         0.0794
     124    H59     22.015493   15.787121   18.068517 H          1 MOL1         0.0794
     125    O30     24.067185   15.916304   18.410437 O.3        1 MOL1        -0.5486
     126    H60     24.615016   16.680159   18.700054 H          1 MOL1         0.3769
     127    C1      19.941116   19.214544   19.971956 C.2        1 MOL1         0.6173
     128    O1      19.973371   18.074026   19.546686 O.co2      1 MOL1        -0.6755
     129    O2      19.803237   20.191870   19.260694 O.co2      1 MOL1        -0.6755
     130    C2      20.131217   19.457647   21.427552 C.2        1 MOL1        -0.1504
     131    H1      20.111535   20.496084   21.740256 H          1 MOL1         0.0814
     132    C3      20.323865   18.481492   22.342276 C.2        1 MOL1        -0.1394
     133    H2      20.332257   17.435786   22.045231 H          1 MOL1         0.0817
     134    C4      20.544951   18.739084   23.818603 C.3        1 MOL1        -0.1849
     135    H3      21.480550   19.297815   23.952852 H          1 MOL1         0.0736
     136    H4      20.679340   17.782767   24.341452 H          1 MOL1         0.0736
     137    C5      19.388489   19.523985   24.479097 C.3        1 MOL1        -0.1866
     138    H5      19.631856   19.702710   25.535041 H          1 MOL1         0.0738
     139    H6      19.296354   20.513010   24.012081 H          1 MOL1         0.0738
     140    C6      18.041502   18.776608   24.389232 C.3        1 MOL1        -0.2879
     141    H7      18.100701   17.806902   24.898910 H          1 MOL1         0.0750
     142    H8      17.240822   19.362344   24.858416 H          1 MOL1         0.0750
     143    H9      17.763572   18.600884   23.342906 H          1 MOL1         0.0750
@<TRIPOS>BOND
    1     1     2    1
    2     1     3    1
    3     1     4    1
    4     4     5    1
    5     4     6    1
    6     6     7    1
    7     4     8    1
    8     8     9    1
    9     8    10    1
   10    10    11    1
   11     8    12    1
   12    12    13    1
   13    12    14    1
   14    14    15    1
   15     1    16    1
   16    14    16    1
   17    14    17    1
   18    17    18    1
   19    17    19    1
   20    17    20    1
   21    20    21    1
   22    22    23    1
   23    22    24    1
   24    22    25    1
   25    25    26    1
   26    25    27    1
   27    27    28    1
   28    25    29    1
   29    29    30    1
   30    29    31    1
   31    31    32    1
   32     3    33    1
   33    29    33    1
   34    33    34    1
   35    33    35    1
   36    35    36    1
   37    22    37    1
   38    35    37    1
   39    35    38    1
   40    38    39    1
   41    38    40    1
   42    38    41    1
   43    41    42    1
   44    43    44    1
   45    43    45    1
   46    43    46    1
   47    46    47    1
   48    46    48    1
   49    48    49    1
   50    46    50    1
   51    50    51    1
   52    50    52    1
   53    52    53    1
   54    24    54    1
   55    50    54    1
   56    54    55    1
   57    54    56    1
   58    56    57    1
   59    43    58    1
   60    56    58    1
   61    56    59    1
   62    59    60    1
   63    59    61    1
   64    59    62    1
   65    62    63    1
   66    64    65    1
   67    64    66    1
   68    64    67    1
   69    67    68    1
   70    67    69    1
   71    69    70    1
   72    67    71    1
   73    71    72    1
   74    71    73    1
   75    73    74    1
   76    45    75    1
   77    71    75    1
   78    75    76    1
   79    75    77    1
   80    77    78    1
   81    64    79    1
   82    77    79    1
   83    77    80    1
   84    80    81    1
   85    80    82    1
   86    80    83    1
   87    83    84    1
   88    85    86    1
   89    85    87    1
   90    85    88    1
   91    88    89    1
   92    88    90    1
   93    90    91    1
   94    88    92    1
   95    92    93    1
   96    92    94    1
   97    94    95    1
   98    66    96    1
   99    92    96    1
  100    96    97    1
  101    96    98    1
  102    98    99    1
  103    85   100    1
  104    98   100    1
  105    98   101    1
  106   101   102    1
  107   101   103    1
  108   101   104    1
  109   104   105    1
  110   106   107    1
  111    12   108    1
  112   106   108    1
  113   106   109    1
  114   109   110    1
  115   109   111    1
  116   111   112    1
  117   109   113    1
  118   113   114    1
  119   113   115    1
  120   115   116    1
  121    87   117    1
  122   113   117    1
  123   117   118    1
  124   117   119    1
  125   119   120    1
  126   106   121    1
  127   119   121    1
  128   119   122    1
  129   122   123    1
  130   122   124    1
  131   122   125    1
  132   125   126    1
  133   127   128    1
  134   127   129    2
  135   127   130    1
  136   130   131    1
  137   130   132    2
  138   132   133    1
  139   132   134    1
  140   134   135    1
  141   134   136    1
  142   134   137    1
  143   137   138    1
  144   137   139    1
  145   137   140    1
  146   140   141    1
  147   140   142    1
  148   140   143    1
@<TRIPOS>SUBSTRUCTURE
       1 MOL1            1 RESIDUE      1      MOL     
       2 MOL1          143 RESIDUE      1      MOL     
@<SCITEGIC>MOL_PROPERTY
feprocess Rank
SciTegic.value.IntegerValue
162

@<SCITEGIC>MOL_PROPERTY
Conf_Id
SciTegic.value.IntegerValue
695

@<SCITEGIC>MOL_PROPERTY
Probability
SciTegic.value.DoubleValue
0.00

@<SCITEGIC>MOL_PROPERTY
G
SciTegic.value.DoubleValue
504.428

@<SCITEGIC>MOL_PROPERTY
E
SciTegic.value.DoubleValue
323.696

@<SCITEGIC>MOL_PROPERTY
-TS
SciTegic.value.DoubleValue
180.732

@<SCITEGIC>MOL_PROPERTY
U+W
SciTegic.value.DoubleValue
197.607

@<SCITEGIC>MOL_PROPERTY
U
SciTegic.value.DoubleValue
264.231

@<SCITEGIC>MOL_PROPERTY
W
SciTegic.value.DoubleValue
-66.623

@<SCITEGIC>MOL_PROPERTY
W(PB)
SciTegic.value.DoubleValue
-72.464

@<SCITEGIC>MOL_PROPERTY
W(SA)
SciTegic.value.DoubleValue
5.841

@<SCITEGIC>MOL_PROPERTY
Valence
SciTegic.value.DoubleValue
149.899

@<SCITEGIC>MOL_PROPERTY
Coulomb
SciTegic.value.DoubleValue
143.696

@<SCITEGIC>MOL_PROPERTY
VdW
SciTegic.value.DoubleValue
-29.365

@<SCITEGIC>MOL_PROPERTY
VdW6
SciTegic.value.DoubleValue
-183.850

@<SCITEGIC>MOL_PROPERTY
VdW12
SciTegic.value.DoubleValue
154.485

@<SCITEGIC>MOL_PROPERTY
Bond
SciTegic.value.DoubleValue
4.387

@<SCITEGIC>MOL_PROPERTY
Angle
SciTegic.value.DoubleValue
13.634

@<SCITEGIC>MOL_PROPERTY
Pdih
SciTegic.value.DoubleValue
131.874

@<SCITEGIC>MOL_PROPERTY
Idih
SciTegic.value.DoubleValue
0.004

@<SCITEGIC>MOL_PROPERTY
Tether
SciTegic.value.DoubleValue
0.000

@<TRIPOS>MOLECULE
CD_guest-s19_fast_vm2_rndm.mol2 : feprocess host+ligand conformer 163
         143         148           2
SMALL
USER_CHARGES
 
@<TRIPOS>ATOM
       1    C1      16.012788   15.104692   21.727516 C.3        1 MOL1         0.2972
       2    H1      14.947541   14.847518   21.790159 H          1 MOL1         0.0751
       3    O1      16.212752   16.527286   21.833800 O.3        1 MOL1        -0.3740
       4    C2      16.781084   14.413932   22.881013 C.3        1 MOL1         0.1003
       5    H2      16.633843   13.331258   22.774955 H          1 MOL1         0.0783
       6    O2      16.259371   14.843959   24.147413 O.3        1 MOL1        -0.5519
       7    H3      15.981753   15.782252   24.027227 H          1 MOL1         0.3769
       8    C3      18.299056   14.699559   22.799083 C.3        1 MOL1         0.1053
       9    H4      18.459152   15.759457   23.031195 H          1 MOL1         0.0783
      10    O3      18.993181   13.887942   23.753488 O.3        1 MOL1        -0.5519
      11    H5      18.511581   14.018957   24.599906 H          1 MOL1         0.3769
      12    C4      18.865041   14.426337   21.385912 C.3        1 MOL1         0.1018
      13    H6      18.980219   13.340973   21.263750 H          1 MOL1         0.0783
      14    C5      17.966494   15.003730   20.252801 C.3        1 MOL1         0.1043
      15    H7      18.077676   16.095109   20.272262 H          1 MOL1         0.0783
      16    O4      16.574739   14.659568   20.477578 O.3        1 MOL1        -0.3740
      17    C6      18.341107   14.521986   18.829411 C.3        1 MOL1         0.0138
      18    H8      19.271652   15.016101   18.521190 H          1 MOL1         0.0794
      19    H9      17.558141   14.848327   18.131822 H          1 MOL1         0.0794
      20    O5      18.497136   13.099159   18.765115 O.3        1 MOL1        -0.5486
      21    H10     18.638181   12.856619   17.824008 H          1 MOL1         0.3769
      22    C7      14.470115   20.213621   21.075364 C.3        1 MOL1         0.2972
      23    H11     13.825995   21.055599   20.791750 H          1 MOL1         0.0751
      24    O6      15.752754   20.658737   21.548854 O.3        1 MOL1        -0.3740
      25    C8      13.820744   19.409853   22.226855 C.3        1 MOL1         0.1003
      26    H12     12.854289   19.031461   21.869397 H          1 MOL1         0.0783
      27    O7      13.614078   20.262850   23.364363 O.3        1 MOL1        -0.5519
      28    H13     14.398209   20.863471   23.411400 H          1 MOL1         0.3769
      29    C9      14.701445   18.198569   22.619421 C.3        1 MOL1         0.1053
      30    H14     15.613377   18.585744   23.089475 H          1 MOL1         0.0783
      31    O8      13.995341   17.377799   23.555294 O.3        1 MOL1        -0.5519
      32    H15     13.643162   18.000636   24.228786 H          1 MOL1         0.3769
      33    C10     15.119195   17.356489   21.386766 C.3        1 MOL1         0.1018
      34    H16     14.252241   16.763857   21.066901 H          1 MOL1         0.0783
      35    C11     15.614970   18.236053   20.199385 C.3        1 MOL1         0.1043
      36    H17     16.589257   18.658372   20.476760 H          1 MOL1         0.0783
      37    O9      14.675666   19.316985   19.964442 O.3        1 MOL1        -0.3740
      38    C12     15.816432   17.488213   18.854805 C.3        1 MOL1         0.0138
      39    H18     16.857024   17.150413   18.792659 H          1 MOL1         0.0794
      40    H19     15.672752   18.202954   18.033478 H          1 MOL1         0.0794
      41    O10     14.935622   16.372588   18.683867 O.3        1 MOL1        -0.5486
      42    H20     15.297419   15.635925   19.230154 H          1 MOL1         0.3769
      43    C13     18.542099   23.749638   21.108214 C.3        1 MOL1         0.2972
      44    H21     18.980549   24.729042   20.876520 H          1 MOL1         0.0751
      45    O11     19.552853   22.816492   21.544584 O.3        1 MOL1        -0.3740
      46    C14     17.483540   23.921589   22.226916 C.3        1 MOL1         0.1003
      47    H22     16.751826   24.658752   21.871662 H          1 MOL1         0.0783
      48    O12     18.096012   24.409441   23.431419 O.3        1 MOL1        -0.5519
      49    H23     19.073741   24.312720   23.314635 H          1 MOL1         0.3769
      50    C15     16.729121   22.601085   22.499684 C.3        1 MOL1         0.1053
      51    H24     17.440886   21.893374   22.944114 H          1 MOL1         0.0783
      52    O13     15.650166   22.844433   23.409683 O.3        1 MOL1        -0.5519
      53    H25     16.049134   23.369123   24.138681 H          1 MOL1         0.3769
      54    C16     16.186306   21.981813   21.189281 C.3        1 MOL1         0.1018
      55    H26     15.359000   22.601975   20.820037 H          1 MOL1         0.0783
      56    C17     17.307098   21.883087   20.115021 C.3        1 MOL1         0.1043
      57    H27     18.065931   21.182338   20.486139 H          1 MOL1         0.0783
      58    O14     17.906734   23.191661   19.937624 O.3        1 MOL1        -0.3740
      59    C18     16.857866   21.371860   18.722541 C.3        1 MOL1         0.0138
      60    H28     16.909690   20.276679   18.718247 H          1 MOL1         0.0794
      61    H29     17.577772   21.723199   17.971294 H          1 MOL1         0.0794
      62    O15     15.536977   21.792160   18.366812 O.3        1 MOL1        -0.5486
      63    H30     14.922123   21.111835   18.722741 H          1 MOL1         0.3769
      64    C19     23.791901   22.693796   21.268398 C.3        1 MOL1         0.2972
      65    H31     24.795508   22.968635   20.919046 H          1 MOL1         0.0751
      66    O16     23.853071   21.572441   22.167499 O.3        1 MOL1        -0.3740
      67    C20     23.158795   23.884241   22.042041 C.3        1 MOL1         0.1003
      68    H32     23.197884   24.760934   21.382471 H          1 MOL1         0.0783
      69    O17     23.908316   24.155059   23.235622 O.3        1 MOL1        -0.5519
      70    H33     24.078262   23.278035   23.651118 H          1 MOL1         0.3769
      71    C21     21.673255   23.622654   22.399639 C.3        1 MOL1         0.1053
      72    H34     21.629745   22.816557   23.145393 H          1 MOL1         0.0783
      73    O18     21.093244   24.817955   22.933603 O.3        1 MOL1        -0.5519
      74    H35     21.745177   25.149463   23.590658 H          1 MOL1         0.3769
      75    C22     20.894243   23.166507   21.146104 C.3        1 MOL1         0.1018
      76    H36     20.896640   23.986126   20.414823 H          1 MOL1         0.0783
      77    C23     21.585564   21.941512   20.498828 C.3        1 MOL1         0.1043
      78    H37     21.615885   21.119688   21.226003 H          1 MOL1         0.0783
      79    O19     22.934798   22.338343   20.156499 O.3        1 MOL1        -0.3740
      80    C24     20.887662   21.412925   19.219958 C.3        1 MOL1         0.0138
      81    H38     20.078368   20.735562   19.520410 H          1 MOL1         0.0794
      82    H39     21.610489   20.816737   18.647900 H          1 MOL1         0.0794
      83    O20     20.359297   22.458857   18.396136 O.3        1 MOL1        -0.5486
      84    H40     19.573185   22.829769   18.860788 H          1 MOL1         0.3769
      85    C25     25.235574   17.721548   21.881611 C.3        1 MOL1         0.2972
      86    H41     25.770052   16.764870   21.817240 H          1 MOL1         0.0751
      87    O21     23.805960   17.529705   21.819059 O.3        1 MOL1        -0.3740
      88    C26     25.633803   18.450788   23.183722 C.3        1 MOL1         0.1003
      89    H42     26.691585   18.727956   23.088697 H          1 MOL1         0.0783
      90    O22     25.493802   17.591207   24.325286 O.3        1 MOL1        -0.5519
      91    H43     24.525595   17.416573   24.471472 H          1 MOL1         0.3769
      92    C27     24.818747   19.755610   23.314562 C.3        1 MOL1         0.1053
      93    H44     23.760582   19.482476   23.359659 H          1 MOL1         0.0783
      94    O23     25.181800   20.461184   24.508545 O.3        1 MOL1        -0.5519
      95    H45     24.746950   19.966935   25.250648 H          1 MOL1         0.3769
      96    C28     24.983987   20.668990   22.072103 C.3        1 MOL1         0.1018
      97    H46     25.931089   21.214984   22.167380 H          1 MOL1         0.0783
      98    C29     24.945991   19.881453   20.714769 C.3        1 MOL1         0.1043
      99    H47     23.892211   19.718355   20.471536 H          1 MOL1         0.0783
     100    O24     25.611731   18.590017   20.796769 O.3        1 MOL1        -0.3740
     101    C30     25.605223   20.613042   19.515481 C.3        1 MOL1         0.0138
     102    H48     24.945802   21.409242   19.154102 H          1 MOL1         0.0794
     103    H49     25.708328   19.897789   18.688138 H          1 MOL1         0.0794
     104    O25     26.886022   21.157926   19.854070 O.3        1 MOL1        -0.5486
     105    H50     27.283207   21.519956   19.031899 H          1 MOL1         0.3769
     106    C31     21.156088   14.505054   20.535771 C.3        1 MOL1         0.2972
     107    H51     20.763892   13.650657   19.969975 H          1 MOL1         0.0751
     108    O26     20.135275   15.107359   21.350335 O.3        1 MOL1        -0.3740
     109    C32     22.309564   14.044981   21.466537 C.3        1 MOL1         0.1003
     110    H52     23.031309   13.508702   20.836859 H          1 MOL1         0.0783
     111    O27     21.811844   13.150661   22.476468 O.3        1 MOL1        -0.5519
     112    H53     21.003223   13.571126   22.861771 H          1 MOL1         0.3769
     113    C33     23.058026   15.234132   22.126774 C.3        1 MOL1         0.1053
     114    H54     22.415074   15.663018   22.908220 H          1 MOL1         0.0783
     115    O28     24.269687   14.736263   22.703370 O.3        1 MOL1        -0.5519
     116    H55     23.991935   14.039207   23.335859 H          1 MOL1         0.3769
     117    C34     23.382393   16.351662   21.100811 C.3        1 MOL1         0.1018
     118    H56     24.167995   15.990585   20.423723 H          1 MOL1         0.0783
     119    C35     22.136681   16.721339   20.256222 C.3        1 MOL1         0.1043
     120    H57     21.368907   17.134921   20.922945 H          1 MOL1         0.0783
     121    O29     21.647755   15.514416   19.629990 O.3        1 MOL1        -0.3740
     122    C36     22.392339   17.769810   19.145606 C.3        1 MOL1         0.0138
     123    H58     22.261705   18.766409   19.581627 H          1 MOL1         0.0794
     124    H59     21.618182   17.660332   18.374508 H          1 MOL1         0.0794
     125    O30     23.693682   17.659400   18.554487 O.3        1 MOL1        -0.5486
     126    H60     24.356581   17.838902   19.260545 H          1 MOL1         0.3769
     127    C1      22.559078   18.449618   25.414586 C.2        1 MOL1         0.6173
     128    O1      22.822292   17.293622   25.141171 O.co2      1 MOL1        -0.6755
     129    O2      23.210313   19.105434   26.205222 O.co2      1 MOL1        -0.6755
     130    C2      21.531529   19.168945   24.616792 C.2        1 MOL1        -0.1504
     131    H1      21.367736   20.211064   24.880227 H          1 MOL1         0.0814
     132    C3      20.851180   18.607007   23.593114 C.2        1 MOL1        -0.1394
     133    H2      21.014737   17.566221   23.317501 H          1 MOL1         0.0817
     134    C4      19.836036   19.353130   22.759212 C.3        1 MOL1        -0.1849
     135    H3      19.969758   19.090607   21.702363 H          1 MOL1         0.0736
     136    H4      19.997921   20.435923   22.836286 H          1 MOL1         0.0736
     137    C5      18.394017   19.021545   23.182802 C.3        1 MOL1        -0.1866
     138    H5      17.711324   19.485690   22.468022 H          1 MOL1         0.0738
     139    H6      18.225760   17.940826   23.118024 H          1 MOL1         0.0738
     140    C6      18.057576   19.515474   24.606128 C.3        1 MOL1        -0.2879
     141    H7      18.251393   20.590645   24.707474 H          1 MOL1         0.0750
     142    H8      17.000877   19.337458   24.840905 H          1 MOL1         0.0750
     143    H9      18.661011   18.989319   25.356703 H          1 MOL1         0.0750
@<TRIPOS>BOND
    1     1     2    1
    2     1     3    1
    3     1     4    1
    4     4     5    1
    5     4     6    1
    6     6     7    1
    7     4     8    1
    8     8     9    1
    9     8    10    1
   10    10    11    1
   11     8    12    1
   12    12    13    1
   13    12    14    1
   14    14    15    1
   15     1    16    1
   16    14    16    1
   17    14    17    1
   18    17    18    1
   19    17    19    1
   20    17    20    1
   21    20    21    1
   22    22    23    1
   23    22    24    1
   24    22    25    1
   25    25    26    1
   26    25    27    1
   27    27    28    1
   28    25    29    1
   29    29    30    1
   30    29    31    1
   31    31    32    1
   32     3    33    1
   33    29    33    1
   34    33    34    1
   35    33    35    1
   36    35    36    1
   37    22    37    1
   38    35    37    1
   39    35    38    1
   40    38    39    1
   41    38    40    1
   42    38    41    1
   43    41    42    1
   44    43    44    1
   45    43    45    1
   46    43    46    1
   47    46    47    1
   48    46    48    1
   49    48    49    1
   50    46    50    1
   51    50    51    1
   52    50    52    1
   53    52    53    1
   54    24    54    1
   55    50    54    1
   56    54    55    1
   57    54    56    1
   58    56    57    1
   59    43    58    1
   60    56    58    1
   61    56    59    1
   62    59    60    1
   63    59    61    1
   64    59    62    1
   65    62    63    1
   66    64    65    1
   67    64    66    1
   68    64    67    1
   69    67    68    1
   70    67    69    1
   71    69    70    1
   72    67    71    1
   73    71    72    1
   74    71    73    1
   75    73    74    1
   76    45    75    1
   77    71    75    1
   78    75    76    1
   79    75    77    1
   80    77    78    1
   81    64    79    1
   82    77    79    1
   83    77    80    1
   84    80    81    1
   85    80    82    1
   86    80    83    1
   87    83    84    1
   88    85    86    1
   89    85    87    1
   90    85    88    1
   91    88    89    1
   92    88    90    1
   93    90    91    1
   94    88    92    1
   95    92    93    1
   96    92    94    1
   97    94    95    1
   98    66    96    1
   99    92    96    1
  100    96    97    1
  101    96    98    1
  102    98    99    1
  103    85   100    1
  104    98   100    1
  105    98   101    1
  106   101   102    1
  107   101   103    1
  108   101   104    1
  109   104   105    1
  110   106   107    1
  111    12   108    1
  112   106   108    1
  113   106   109    1
  114   109   110    1
  115   109   111    1
  116   111   112    1
  117   109   113    1
  118   113   114    1
  119   113   115    1
  120   115   116    1
  121    87   117    1
  122   113   117    1
  123   117   118    1
  124   117   119    1
  125   119   120    1
  126   106   121    1
  127   119   121    1
  128   119   122    1
  129   122   123    1
  130   122   124    1
  131   122   125    1
  132   125   126    1
  133   127   128    1
  134   127   129    2
  135   127   130    1
  136   130   131    1
  137   130   132    2
  138   132   133    1
  139   132   134    1
  140   134   135    1
  141   134   136    1
  142   134   137    1
  143   137   138    1
  144   137   139    1
  145   137   140    1
  146   140   141    1
  147   140   142    1
  148   140   143    1
@<TRIPOS>SUBSTRUCTURE
       1 MOL1            1 RESIDUE      1      MOL     
       2 MOL1          143 RESIDUE      1      MOL     
@<SCITEGIC>MOL_PROPERTY
feprocess Rank
SciTegic.value.IntegerValue
163

@<SCITEGIC>MOL_PROPERTY
Conf_Id
SciTegic.value.IntegerValue
938

@<SCITEGIC>MOL_PROPERTY
Probability
SciTegic.value.DoubleValue
0.00

@<SCITEGIC>MOL_PROPERTY
G
SciTegic.value.DoubleValue
504.505

@<SCITEGIC>MOL_PROPERTY
E
SciTegic.value.DoubleValue
322.978

@<SCITEGIC>MOL_PROPERTY
-TS
SciTegic.value.DoubleValue
181.527

@<SCITEGIC>MOL_PROPERTY
U+W
SciTegic.value.DoubleValue
196.890

@<SCITEGIC>MOL_PROPERTY
U
SciTegic.value.DoubleValue
277.683

@<SCITEGIC>MOL_PROPERTY
W
SciTegic.value.DoubleValue
-80.794

@<SCITEGIC>MOL_PROPERTY
W(PB)
SciTegic.value.DoubleValue
-86.785

@<SCITEGIC>MOL_PROPERTY
W(SA)
SciTegic.value.DoubleValue
5.992

@<SCITEGIC>MOL_PROPERTY
Valence
SciTegic.value.DoubleValue
150.222

@<SCITEGIC>MOL_PROPERTY
Coulomb
SciTegic.value.DoubleValue
152.573

@<SCITEGIC>MOL_PROPERTY
VdW
SciTegic.value.DoubleValue
-25.112

@<SCITEGIC>MOL_PROPERTY
VdW6
SciTegic.value.DoubleValue
-178.819

@<SCITEGIC>MOL_PROPERTY
VdW12
SciTegic.value.DoubleValue
153.707

@<SCITEGIC>MOL_PROPERTY
Bond
SciTegic.value.DoubleValue
4.943

@<SCITEGIC>MOL_PROPERTY
Angle
SciTegic.value.DoubleValue
15.346

@<SCITEGIC>MOL_PROPERTY
Pdih
SciTegic.value.DoubleValue
129.872

@<SCITEGIC>MOL_PROPERTY
Idih
SciTegic.value.DoubleValue
0.061

@<SCITEGIC>MOL_PROPERTY
Tether
SciTegic.value.DoubleValue
0.000

@<TRIPOS>MOLECULE
CD_guest-s19_fast_vm2_rndm.mol2 : feprocess host+ligand conformer 164
         143         148           2
SMALL
USER_CHARGES
 
@<TRIPOS>ATOM
       1    C1      16.342994   15.642289   21.965226 C.3        1 MOL1         0.2972
       2    H1      15.263123   15.593118   22.152610 H          1 MOL1         0.0751
       3    O1      16.724951   16.907378   21.395344 O.3        1 MOL1        -0.3740
       4    C2      17.122214   15.435762   23.288740 C.3        1 MOL1         0.1003
       5    H2      16.893319   14.423615   23.646313 H          1 MOL1         0.0783
       6    O2      16.717463   16.381699   24.288288 O.3        1 MOL1        -0.5519
       7    H3      16.941799   17.289011   23.939919 H          1 MOL1         0.3769
       8    C3      18.644976   15.520698   23.038711 C.3        1 MOL1         0.1053
       9    H4      18.879132   16.537203   22.698814 H          1 MOL1         0.0783
      10    O3      19.345589   15.235708   24.254218 O.3        1 MOL1        -0.5519
      11    H5      18.935055   15.825879   24.924635 H          1 MOL1         0.3769
      12    C4      19.073022   14.527498   21.932089 C.3        1 MOL1         0.1018
      13    H6      19.041146   13.512652   22.350910 H          1 MOL1         0.0783
      14    C5      18.159881   14.610343   20.674237 C.3        1 MOL1         0.1043
      15    H7      18.390882   15.552546   20.165225 H          1 MOL1         0.0783
      16    O4      16.755226   14.605584   21.046501 O.3        1 MOL1        -0.3740
      17    C6      18.398261   13.468772   19.656984 C.3        1 MOL1         0.0138
      18    H8      19.376332   13.623303   19.181440 H          1 MOL1         0.0794
      19    H9      17.638199   13.537565   18.867201 H          1 MOL1         0.0794
      20    O5      18.357645   12.177388   20.276966 O.3        1 MOL1        -0.5486
      21    H10     18.433533   11.503385   19.566641 H          1 MOL1         0.3769
      22    C7      15.163044   20.388459   19.849360 C.3        1 MOL1         0.2972
      23    H11     14.654079   21.189582   19.298269 H          1 MOL1         0.0751
      24    O6      16.288547   20.891474   20.595328 O.3        1 MOL1        -0.3740
      25    C8      14.188807   19.652944   20.805834 C.3        1 MOL1         0.1003
      26    H12     13.410566   19.198985   20.178678 H          1 MOL1         0.0783
      27    O7      13.566381   20.557665   21.730968 O.3        1 MOL1        -0.5519
      28    H13     14.288888   20.930600   22.298083 H          1 MOL1         0.3769
      29    C9      14.908225   18.509516   21.565442 C.3        1 MOL1         0.1053
      30    H14     15.602235   18.966332   22.282585 H          1 MOL1         0.0783
      31    O8      13.922126   17.738200   22.260524 O.3        1 MOL1        -0.5519
      32    H15     13.401933   18.390221   22.778634 H          1 MOL1         0.3769
      33    C10     15.729215   17.593122   20.612617 C.3        1 MOL1         0.1018
      34    H16     15.042780   16.889253   20.125699 H          1 MOL1         0.0783
      35    C11     16.517294   18.382762   19.528711 C.3        1 MOL1         0.1043
      36    H17     17.368830   18.871091   20.021563 H          1 MOL1         0.0783
      37    O9      15.666689   19.393619   18.932011 O.3        1 MOL1        -0.3740
      38    C12     17.115479   17.502935   18.400139 C.3        1 MOL1         0.0138
      39    H18     18.095363   17.136803   18.730355 H          1 MOL1         0.0794
      40    H19     17.297088   18.136974   17.522099 H          1 MOL1         0.0794
      41    O10     16.281712   16.393567   18.040966 O.3        1 MOL1        -0.5486
      42    H20     16.240713   15.793457   18.818103 H          1 MOL1         0.3769
      43    C13     18.289832   24.095774   22.093786 C.3        1 MOL1         0.2972
      44    H21     18.693071   25.043859   22.472179 H          1 MOL1         0.0751
      45    O11     19.313055   23.089991   21.953297 O.3        1 MOL1        -0.3740
      46    C14     17.217669   23.548317   23.061737 C.3        1 MOL1         0.1003
      47    H22     16.368019   24.243009   23.051883 H          1 MOL1         0.0783
      48    O12     17.751553   23.479130   24.392199 O.3        1 MOL1        -0.5519
      49    H23     18.677445   23.146623   24.319556 H          1 MOL1         0.3769
      50    C15     16.714928   22.171450   22.560194 C.3        1 MOL1         0.1053
      51    H24     17.554558   21.465069   22.600576 H          1 MOL1         0.0783
      52    O13     15.658200   21.689581   23.397932 O.3        1 MOL1        -0.5519
      53    H25     16.125774   21.295999   24.184468 H          1 MOL1         0.3769
      54    C16     16.239068   22.244584   21.084344 C.3        1 MOL1         0.1018
      55    H26     15.224310   22.662580   21.055403 H          1 MOL1         0.0783
      56    C17     17.194484   23.063160   20.163364 C.3        1 MOL1         0.1043
      57    H27     18.062378   22.426832   19.949571 H          1 MOL1         0.0783
      58    O14     17.660229   24.277406   20.809532 O.3        1 MOL1        -0.3740
      59    C18     16.567923   23.441502   18.800421 C.3        1 MOL1         0.0138
      60    H28     16.461580   22.528142   18.199743 H          1 MOL1         0.0794
      61    H29     17.263210   24.103387   18.266681 H          1 MOL1         0.0794
      62    O15     15.292266   24.076118   18.950764 O.3        1 MOL1        -0.5486
      63    H30     14.992501   24.358800   18.059139 H          1 MOL1         0.3769
      64    C19     23.449803   22.556934   21.916796 C.3        1 MOL1         0.2972
      65    H31     24.531947   22.740406   21.890336 H          1 MOL1         0.0751
      66    O16     23.163866   21.144206   21.874065 O.3        1 MOL1        -0.3740
      67    C20     22.853797   23.137067   23.225353 C.3        1 MOL1         0.1003
      68    H32     23.075506   24.212098   23.241231 H          1 MOL1         0.0783
      69    O17     23.454336   22.514960   24.370319 O.3        1 MOL1        -0.5519
      70    H33     23.624265   21.581001   24.115458 H          1 MOL1         0.3769
      71    C21     21.317456   22.966536   23.262534 C.3        1 MOL1         0.1053
      72    H34     21.088049   21.893020   23.313355 H          1 MOL1         0.0783
      73    O18     20.793463   23.629865   24.416197 O.3        1 MOL1        -0.5519
      74    H35     21.389015   23.367015   25.152830 H          1 MOL1         0.3769
      75    C22     20.676423   23.539903   21.976887 C.3        1 MOL1         0.1018
      76    H36     20.756360   24.634906   21.988823 H          1 MOL1         0.0783
      77    C23     21.361201   22.977978   20.703704 C.3        1 MOL1         0.1043
      78    H37     21.151662   21.903343   20.675241 H          1 MOL1         0.0783
      79    O19     22.795379   23.181872   20.787196 O.3        1 MOL1        -0.3740
      80    C24     20.843951   23.578993   19.369302 C.3        1 MOL1         0.0138
      81    H38     20.016022   22.957733   19.005666 H          1 MOL1         0.0794
      82    H39     21.642026   23.510311   18.618172 H          1 MOL1         0.0794
      83    O20     20.403591   24.936598   19.491833 O.3        1 MOL1        -0.5486
      84    H40     19.520547   24.914787   19.928338 H          1 MOL1         0.3769
      85    C25     24.987322   17.567821   20.674952 C.3        1 MOL1         0.2972
      86    H41     25.606905   16.822125   20.160377 H          1 MOL1         0.0751
      87    O21     24.061582   16.940192   21.583625 O.3        1 MOL1        -0.3740
      88    C26     25.884029   18.526102   21.500301 C.3        1 MOL1         0.1003
      89    H42     26.607657   18.976718   20.808629 H          1 MOL1         0.0783
      90    O22     26.585455   17.793410   22.516021 O.3        1 MOL1        -0.5519
      91    H43     25.915402   17.208659   22.939929 H          1 MOL1         0.3769
      92    C27     25.062612   19.669684   22.147782 C.3        1 MOL1         0.1053
      93    H44     24.454424   19.233759   22.947942 H          1 MOL1         0.0783
      94    O23     25.960874   20.635148   22.702186 O.3        1 MOL1        -0.5519
      95    H45     26.607663   20.116496   23.229192 H          1 MOL1         0.3769
      96    C28     24.108837   20.348358   21.129976 C.3        1 MOL1         0.1018
      97    H46     24.707821   20.963747   20.445715 H          1 MOL1         0.0783
      98    C29     23.309409   19.307091   20.300563 C.3        1 MOL1         0.1043
      99    H47     22.615101   18.781015   20.968407 H          1 MOL1         0.0783
     100    O24     24.242689   18.363763   19.728716 O.3        1 MOL1        -0.3740
     101    C30     22.465360   19.903309   19.145272 C.3        1 MOL1         0.0138
     102    H48     21.474665   20.164010   19.536029 H          1 MOL1         0.0794
     103    H49     22.305740   19.121962   18.390311 H          1 MOL1         0.0794
     104    O25     23.071584   21.052000   18.538820 O.3        1 MOL1        -0.5486
     105    H50     23.111674   21.760788   19.221210 H          1 MOL1         0.3769
     106    C31     21.336934   13.811562   21.361189 C.3        1 MOL1         0.2972
     107    H51     20.816936   12.852343   21.242143 H          1 MOL1         0.0751
     108    O26     20.406395   14.900755   21.522968 O.3        1 MOL1        -0.3740
     109    C32     22.300285   13.767416   22.571550 C.3        1 MOL1         0.1003
     110    H52     23.033366   12.975157   22.371416 H          1 MOL1         0.0783
     111    O27     21.602187   13.458756   23.788198 O.3        1 MOL1        -0.5519
     112    H53     20.883758   14.133236   23.894861 H          1 MOL1         0.3769
     113    C33     23.072769   15.100406   22.709258 C.3        1 MOL1         0.1053
     114    H54     22.355318   15.878794   23.005266 H          1 MOL1         0.0783
     115    O28     24.072564   14.948477   23.723138 O.3        1 MOL1        -0.5519
     116    H55     23.597618   14.591406   24.504287 H          1 MOL1         0.3769
     117    C34     23.743047   15.542675   21.378983 C.3        1 MOL1         0.1018
     118    H56     24.658404   14.951142   21.249711 H          1 MOL1         0.0783
     119    C35     22.810791   15.355071   20.134060 C.3        1 MOL1         0.1043
     120    H57     22.060823   16.157057   20.137744 H          1 MOL1         0.0783
     121    O29     22.137740   14.073400   20.196563 O.3        1 MOL1        -0.3740
     122    C36     23.528380   15.373682   18.758119 C.3        1 MOL1         0.0138
     123    H58     23.723654   16.407382   18.455424 H          1 MOL1         0.0794
     124    H59     22.842164   14.958793   18.007468 H          1 MOL1         0.0794
     125    O30     24.750940   14.625617   18.767801 O.3        1 MOL1        -0.5486
     126    H60     25.097543   14.610303   17.849015 H          1 MOL1         0.3769
     127    C1      18.113818   19.626951   24.505609 C.2        1 MOL1         0.6173
     128    O1      17.427748   20.343644   25.209111 O.co2      1 MOL1        -0.6755
     129    O2      17.649389   18.915063   23.635995 O.co2      1 MOL1        -0.6755
     130    C2      19.586553   19.644120   24.712676 C.2        1 MOL1        -0.1504
     131    H1      19.951578   20.282455   25.513449 H          1 MOL1         0.0814
     132    C3      20.446332   18.912692   23.968222 C.2        1 MOL1        -0.1394
     133    H2      20.083322   18.282407   23.159819 H          1 MOL1         0.0817
     134    C4      21.942086   18.895473   24.168305 C.3        1 MOL1        -0.1849
     135    H3      22.318305   19.920272   24.267413 H          1 MOL1         0.0736
     136    H4      22.411228   18.462986   23.277568 H          1 MOL1         0.0736
     137    C5      22.348026   18.067880   25.403028 C.3        1 MOL1        -0.1866
     138    H5      21.885448   18.495252   26.303023 H          1 MOL1         0.0738
     139    H6      21.963419   17.043492   25.301816 H          1 MOL1         0.0738
     140    C6      23.879385   18.029457   25.578863 C.3        1 MOL1        -0.2879
     141    H7      24.360690   17.562628   24.710416 H          1 MOL1         0.0750
     142    H8      24.287990   19.041389   25.696990 H          1 MOL1         0.0750
     143    H9      24.151223   17.446429   26.467944 H          1 MOL1         0.0750
@<TRIPOS>BOND
    1     1     2    1
    2     1     3    1
    3     1     4    1
    4     4     5    1
    5     4     6    1
    6     6     7    1
    7     4     8    1
    8     8     9    1
    9     8    10    1
   10    10    11    1
   11     8    12    1
   12    12    13    1
   13    12    14    1
   14    14    15    1
   15     1    16    1
   16    14    16    1
   17    14    17    1
   18    17    18    1
   19    17    19    1
   20    17    20    1
   21    20    21    1
   22    22    23    1
   23    22    24    1
   24    22    25    1
   25    25    26    1
   26    25    27    1
   27    27    28    1
   28    25    29    1
   29    29    30    1
   30    29    31    1
   31    31    32    1
   32     3    33    1
   33    29    33    1
   34    33    34    1
   35    33    35    1
   36    35    36    1
   37    22    37    1
   38    35    37    1
   39    35    38    1
   40    38    39    1
   41    38    40    1
   42    38    41    1
   43    41    42    1
   44    43    44    1
   45    43    45    1
   46    43    46    1
   47    46    47    1
   48    46    48    1
   49    48    49    1
   50    46    50    1
   51    50    51    1
   52    50    52    1
   53    52    53    1
   54    24    54    1
   55    50    54    1
   56    54    55    1
   57    54    56    1
   58    56    57    1
   59    43    58    1
   60    56    58    1
   61    56    59    1
   62    59    60    1
   63    59    61    1
   64    59    62    1
   65    62    63    1
   66    64    65    1
   67    64    66    1
   68    64    67    1
   69    67    68    1
   70    67    69    1
   71    69    70    1
   72    67    71    1
   73    71    72    1
   74    71    73    1
   75    73    74    1
   76    45    75    1
   77    71    75    1
   78    75    76    1
   79    75    77    1
   80    77    78    1
   81    64    79    1
   82    77    79    1
   83    77    80    1
   84    80    81    1
   85    80    82    1
   86    80    83    1
   87    83    84    1
   88    85    86    1
   89    85    87    1
   90    85    88    1
   91    88    89    1
   92    88    90    1
   93    90    91    1
   94    88    92    1
   95    92    93    1
   96    92    94    1
   97    94    95    1
   98    66    96    1
   99    92    96    1
  100    96    97    1
  101    96    98    1
  102    98    99    1
  103    85   100    1
  104    98   100    1
  105    98   101    1
  106   101   102    1
  107   101   103    1
  108   101   104    1
  109   104   105    1
  110   106   107    1
  111    12   108    1
  112   106   108    1
  113   106   109    1
  114   109   110    1
  115   109   111    1
  116   111   112    1
  117   109   113    1
  118   113   114    1
  119   113   115    1
  120   115   116    1
  121    87   117    1
  122   113   117    1
  123   117   118    1
  124   117   119    1
  125   119   120    1
  126   106   121    1
  127   119   121    1
  128   119   122    1
  129   122   123    1
  130   122   124    1
  131   122   125    1
  132   125   126    1
  133   127   128    1
  134   127   129    2
  135   127   130    1
  136   130   131    1
  137   130   132    2
  138   132   133    1
  139   132   134    1
  140   134   135    1
  141   134   136    1
  142   134   137    1
  143   137   138    1
  144   137   139    1
  145   137   140    1
  146   140   141    1
  147   140   142    1
  148   140   143    1
@<TRIPOS>SUBSTRUCTURE
       1 MOL1            1 RESIDUE      1      MOL     
       2 MOL1          143 RESIDUE      1      MOL     
@<SCITEGIC>MOL_PROPERTY
feprocess Rank
SciTegic.value.IntegerValue
164

@<SCITEGIC>MOL_PROPERTY
Conf_Id
SciTegic.value.IntegerValue
393

@<SCITEGIC>MOL_PROPERTY
Probability
SciTegic.value.DoubleValue
0.00

@<SCITEGIC>MOL_PROPERTY
G
SciTegic.value.DoubleValue
504.546

@<SCITEGIC>MOL_PROPERTY
E
SciTegic.value.DoubleValue
323.809

@<SCITEGIC>MOL_PROPERTY
-TS
SciTegic.value.DoubleValue
180.737

@<SCITEGIC>MOL_PROPERTY
U+W
SciTegic.value.DoubleValue
197.721

@<SCITEGIC>MOL_PROPERTY
U
SciTegic.value.DoubleValue
269.018

@<SCITEGIC>MOL_PROPERTY
W
SciTegic.value.DoubleValue
-71.298

@<SCITEGIC>MOL_PROPERTY
W(PB)
SciTegic.value.DoubleValue
-77.325

@<SCITEGIC>MOL_PROPERTY
W(SA)
SciTegic.value.DoubleValue
6.027

@<SCITEGIC>MOL_PROPERTY
Valence
SciTegic.value.DoubleValue
145.594

@<SCITEGIC>MOL_PROPERTY
Coulomb
SciTegic.value.DoubleValue
145.173

@<SCITEGIC>MOL_PROPERTY
VdW
SciTegic.value.DoubleValue
-21.748

@<SCITEGIC>MOL_PROPERTY
VdW6
SciTegic.value.DoubleValue
-174.314

@<SCITEGIC>MOL_PROPERTY
VdW12
SciTegic.value.DoubleValue
152.566

@<SCITEGIC>MOL_PROPERTY
Bond
SciTegic.value.DoubleValue
4.987

@<SCITEGIC>MOL_PROPERTY
Angle
SciTegic.value.DoubleValue
15.048

@<SCITEGIC>MOL_PROPERTY
Pdih
SciTegic.value.DoubleValue
125.559

@<SCITEGIC>MOL_PROPERTY
Idih
SciTegic.value.DoubleValue
0.001

@<SCITEGIC>MOL_PROPERTY
Tether
SciTegic.value.DoubleValue
0.000

@<TRIPOS>MOLECULE
CD_guest-s19_fast_vm2_rndm.mol2 : feprocess host+ligand conformer 165
         143         148           2
SMALL
USER_CHARGES
 
@<TRIPOS>ATOM
       1    C1      16.264311   15.262724   21.160848 C.3        1 MOL1         0.2972
       2    H1      15.203538   15.105173   20.927175 H          1 MOL1         0.0751
       3    O1      16.559907   16.654694   21.379835 O.3        1 MOL1        -0.3740
       4    C2      16.631326   14.497170   22.455554 C.3        1 MOL1         0.1003
       5    H2      16.430908   13.432177   22.280441 H          1 MOL1         0.0783
       6    O2      15.829508   14.957078   23.555357 O.3        1 MOL1        -0.5519
       7    H3      15.552092   15.882075   23.339861 H          1 MOL1         0.3769
       8    C3      18.135061   14.655840   22.776466 C.3        1 MOL1         0.1053
       9    H4      18.325341   15.708345   23.029292 H          1 MOL1         0.0783
      10    O3      18.481154   13.820087   23.886558 O.3        1 MOL1        -0.5519
      11    H5      17.777077   13.981153   24.553580 H          1 MOL1         0.3769
      12    C4      18.999212   14.288508   21.547372 C.3        1 MOL1         0.1018
      13    H6      18.940689   13.203286   21.391658 H          1 MOL1         0.0783
      14    C5      18.524869   15.023849   20.261474 C.3        1 MOL1         0.1043
      15    H7      18.699344   16.096982   20.397419 H          1 MOL1         0.0783
      16    O4      17.103702   14.790988   20.083003 O.3        1 MOL1        -0.3740
      17    C6      19.261823   14.618507   18.959434 C.3        1 MOL1         0.0138
      18    H8      20.154571   15.248196   18.855375 H          1 MOL1         0.0794
      19    H9      18.613505   14.849356   18.103818 H          1 MOL1         0.0794
      20    O5      19.643001   13.238380   18.932194 O.3        1 MOL1        -0.5486
      21    H10     20.500546   13.176538   19.412807 H          1 MOL1         0.3769
      22    C7      14.972152   20.430212   20.532579 C.3        1 MOL1         0.2972
      23    H11     14.357924   21.250863   20.140151 H          1 MOL1         0.0751
      24    O6      16.135153   20.914609   21.221860 O.3        1 MOL1        -0.3740
      25    C8      14.173356   19.571699   21.547601 C.3        1 MOL1         0.1003
      26    H12     13.289656   19.180624   21.027000 H          1 MOL1         0.0783
      27    O7      13.753348   20.365274   22.670389 O.3        1 MOL1        -0.5519
      28    H13     14.550337   20.855096   22.996360 H          1 MOL1         0.3769
      29    C9      15.020248   18.368387   22.032924 C.3        1 MOL1         0.1053
      30    H14     15.856075   18.754614   22.633201 H          1 MOL1         0.0783
      31    O8      14.208609   17.500782   22.832303 O.3        1 MOL1        -0.5519
      32    H15     13.724515   18.096251   23.446691 H          1 MOL1         0.3769
      33    C10     15.610487   17.586267   20.834964 C.3        1 MOL1         0.1018
      34    H16     14.788690   17.080155   20.311514 H          1 MOL1         0.0783
      35    C11     16.341970   18.525469   19.837627 C.3        1 MOL1         0.1043
      36    H17     17.212891   18.964977   20.340146 H          1 MOL1         0.0783
      37    O9      15.419837   19.575824   19.456020 O.3        1 MOL1        -0.3740
      38    C12     16.867481   17.836867   18.551607 C.3        1 MOL1         0.0138
      39    H18     17.872310   17.444077   18.751030 H          1 MOL1         0.0794
      40    H19     16.979884   18.599748   17.769736 H          1 MOL1         0.0794
      41    O10     16.020274   16.776432   18.092058 O.3        1 MOL1        -0.5486
      42    H20     16.224126   15.989630   18.648873 H          1 MOL1         0.3769
      43    C13     18.404573   24.250180   21.875256 C.3        1 MOL1         0.2972
      44    H21     18.841020   25.243916   22.037139 H          1 MOL1         0.0751
      45    O11     19.419115   23.232668   21.737608 O.3        1 MOL1        -0.3740
      46    C14     17.477863   23.875049   23.058949 C.3        1 MOL1         0.1003
      47    H22     16.652989   24.599243   23.073778 H          1 MOL1         0.0783
      48    O12     18.178842   23.935875   24.310589 O.3        1 MOL1        -0.5519
      49    H23     19.143947   23.854516   24.106541 H          1 MOL1         0.3769
      50    C15     16.872329   22.469763   22.845738 C.3        1 MOL1         0.1053
      51    H24     17.690550   21.742087   22.912411 H          1 MOL1         0.0783
      52    O13     15.902131   22.198748   23.863936 O.3        1 MOL1        -0.5519
      53    H25     16.340559   22.461069   24.703893 H          1 MOL1         0.3769
      54    C16     16.215300   22.330025   21.451056 C.3        1 MOL1         0.1018
      55    H26     15.224356   22.802039   21.481059 H          1 MOL1         0.0783
      56    C17     17.073158   22.935943   20.304226 C.3        1 MOL1         0.1043
      57    H27     17.910035   22.249072   20.129866 H          1 MOL1         0.0783
      58    O14     17.590836   24.236718   20.686128 O.3        1 MOL1        -0.3740
      59    C18     16.324127   23.083861   18.959023 C.3        1 MOL1         0.0138
      60    H28     16.191749   22.084909   18.522561 H          1 MOL1         0.0794
      61    H29     16.961500   23.653961   18.269509 H          1 MOL1         0.0794
      62    O15     15.050744   23.724816   19.113078 O.3        1 MOL1        -0.5486
      63    H30     14.676655   23.860487   18.215290 H          1 MOL1         0.3769
      64    C19     23.555991   22.728468   21.495516 C.3        1 MOL1         0.2972
      65    H31     24.630373   22.910117   21.364118 H          1 MOL1         0.0751
      66    O16     23.285875   21.336769   21.737667 O.3        1 MOL1        -0.3740
      67    C20     23.044740   23.539487   22.709269 C.3        1 MOL1         0.1003
      68    H32     23.269736   24.596826   22.518464 H          1 MOL1         0.0783
      69    O17     23.718472   23.119392   23.906143 O.3        1 MOL1        -0.5519
      70    H33     23.946381   22.166334   23.779733 H          1 MOL1         0.3769
      71    C21     21.514369   23.399903   22.873247 C.3        1 MOL1         0.1053
      72    H34     21.295447   22.363786   23.163475 H          1 MOL1         0.0783
      73    O18     21.073218   24.295583   23.898064 O.3        1 MOL1        -0.5519
      74    H35     21.722622   24.181915   24.628204 H          1 MOL1         0.3769
      75    C22     20.770441   23.689547   21.545344 C.3        1 MOL1         0.1018
      76    H36     20.813812   24.763943   21.323726 H          1 MOL1         0.0783
      77    C23     21.390666   22.904379   20.354983 C.3        1 MOL1         0.1043
      78    H37     21.190906   21.834243   20.499928 H          1 MOL1         0.0783
      79    O19     22.823413   23.135065   20.322410 O.3        1 MOL1        -0.3740
      80    C24     20.846710   23.331779   18.968561 C.3        1 MOL1         0.0138
      81    H38     20.528047   24.381617   19.003349 H          1 MOL1         0.0794
      82    H39     21.665239   23.266699   18.239255 H          1 MOL1         0.0794
      83    O20     19.770716   22.501973   18.521011 O.3        1 MOL1        -0.5486
      84    H40     19.954420   21.556421   18.777262 H          1 MOL1         0.3769
      85    C25     24.940990   17.575912   20.951037 C.3        1 MOL1         0.2972
      86    H41     25.585052   16.757181   20.605183 H          1 MOL1         0.0751
      87    O21     23.711855   17.090451   21.517841 O.3        1 MOL1        -0.3740
      88    C26     25.647885   18.408652   22.050476 C.3        1 MOL1         0.1003
      89    H42     26.573301   18.810583   21.618058 H          1 MOL1         0.0783
      90    O22     25.970703   17.586890   23.184694 O.3        1 MOL1        -0.5519
      91    H43     25.171741   17.035883   23.384537 H          1 MOL1         0.3769
      92    C27     24.761363   19.602631   22.484950 C.3        1 MOL1         0.1053
      93    H44     23.873562   19.203042   22.993581 H          1 MOL1         0.0783
      94    O23     25.496041   20.444574   23.380369 O.3        1 MOL1        -0.5519
      95    H45     25.907130   19.831682   24.029311 H          1 MOL1         0.3769
      96    C28     24.289174   20.421034   21.257917 C.3        1 MOL1         0.1018
      97    H46     25.160233   20.944591   20.842744 H          1 MOL1         0.0783
      98    C29     23.672585   19.513065   20.157146 C.3        1 MOL1         0.1043
      99    H47     22.743883   19.076623   20.545400 H          1 MOL1         0.0783
     100    O24     24.616861   18.457296   19.855305 O.3        1 MOL1        -0.3740
     101    C30     23.321404   20.230689   18.829011 C.3        1 MOL1         0.0138
     102    H48     22.318770   20.663536   18.918666 H          1 MOL1         0.0794
     103    H49     23.264747   19.477792   18.031614 H          1 MOL1         0.0794
     104    O25     24.257011   21.257658   18.478662 O.3        1 MOL1        -0.5486
     105    H50     23.987918   22.059818   18.982285 H          1 MOL1         0.3769
     106    C31     21.359688   13.717721   21.806269 C.3        1 MOL1         0.2972
     107    H51     20.944016   12.703126   21.853070 H          1 MOL1         0.0751
     108    O26     20.330876   14.721671   21.865724 O.3        1 MOL1        -0.3740
     109    C32     22.304193   13.954524   23.008093 C.3        1 MOL1         0.1003
     110    H52     23.124551   13.228457   22.938195 H          1 MOL1         0.0783
     111    O27     21.596121   13.760305   24.243254 O.3        1 MOL1        -0.5519
     112    H53     20.656906   14.024857   24.079414 H          1 MOL1         0.3769
     113    C33     22.910663   15.375368   22.949507 C.3        1 MOL1         0.1053
     114    H54     22.100720   16.098842   23.110405 H          1 MOL1         0.0783
     115    O28     23.898482   15.519577   23.976242 O.3        1 MOL1        -0.5519
     116    H55     23.470972   15.171896   24.790268 H          1 MOL1         0.3769
     117    C34     23.543549   15.664391   21.567678 C.3        1 MOL1         0.1018
     118    H56     24.501470   15.131323   21.505600 H          1 MOL1         0.0783
     119    C35     22.621598   15.253976   20.384227 C.3        1 MOL1         0.1043
     120    H57     21.783086   15.960417   20.354045 H          1 MOL1         0.0783
     121    O29     22.109016   13.911202   20.589333 O.3        1 MOL1        -0.3740
     122    C36     23.310469   15.309982   19.000591 C.3        1 MOL1         0.0138
     123    H58     23.448192   16.363956   18.724095 H          1 MOL1         0.0794
     124    H59     22.635335   14.868111   18.255750 H          1 MOL1         0.0794
     125    O30     24.573055   14.630794   18.996848 O.3        1 MOL1        -0.5486
     126    H60     24.924287   14.662612   18.080540 H          1 MOL1         0.3769
     127    C1      20.170093   18.723910   19.803966 C.2        1 MOL1         0.6173
     128    O1      20.593187   17.802553   19.132405 O.co2      1 MOL1        -0.6755
     129    O2      19.968845   19.840054   19.360483 O.co2      1 MOL1        -0.6755
     130    C2      19.873265   18.439801   21.233301 C.2        1 MOL1        -0.1504
     131    H1      20.086727   17.429915   21.570502 H          1 MOL1         0.0814
     132    C3      19.359100   19.346408   22.093551 C.2        1 MOL1        -0.1394
     133    H2      19.144162   20.362540   21.765657 H          1 MOL1         0.0817
     134    C4      19.020955   19.032264   23.536794 C.3        1 MOL1        -0.1849
     135    H3      18.284359   18.218491   23.566194 H          1 MOL1         0.0736
     136    H4      18.537166   19.899083   24.004437 H          1 MOL1         0.0736
     137    C5      20.255796   18.627447   24.372616 C.3        1 MOL1        -0.1866
     138    H5      20.718978   17.731919   23.939936 H          1 MOL1         0.0738
     139    H6      19.930414   18.352140   25.384828 H          1 MOL1         0.0738
     140    C6      21.301592   19.757633   24.466514 C.3        1 MOL1        -0.2879
     141    H7      22.158697   19.443904   25.075709 H          1 MOL1         0.0750
     142    H8      20.867982   20.656324   24.923493 H          1 MOL1         0.0750
     143    H9      21.674965   20.024663   23.470678 H          1 MOL1         0.0750
@<TRIPOS>BOND
    1     1     2    1
    2     1     3    1
    3     1     4    1
    4     4     5    1
    5     4     6    1
    6     6     7    1
    7     4     8    1
    8     8     9    1
    9     8    10    1
   10    10    11    1
   11     8    12    1
   12    12    13    1
   13    12    14    1
   14    14    15    1
   15     1    16    1
   16    14    16    1
   17    14    17    1
   18    17    18    1
   19    17    19    1
   20    17    20    1
   21    20    21    1
   22    22    23    1
   23    22    24    1
   24    22    25    1
   25    25    26    1
   26    25    27    1
   27    27    28    1
   28    25    29    1
   29    29    30    1
   30    29    31    1
   31    31    32    1
   32     3    33    1
   33    29    33    1
   34    33    34    1
   35    33    35    1
   36    35    36    1
   37    22    37    1
   38    35    37    1
   39    35    38    1
   40    38    39    1
   41    38    40    1
   42    38    41    1
   43    41    42    1
   44    43    44    1
   45    43    45    1
   46    43    46    1
   47    46    47    1
   48    46    48    1
   49    48    49    1
   50    46    50    1
   51    50    51    1
   52    50    52    1
   53    52    53    1
   54    24    54    1
   55    50    54    1
   56    54    55    1
   57    54    56    1
   58    56    57    1
   59    43    58    1
   60    56    58    1
   61    56    59    1
   62    59    60    1
   63    59    61    1
   64    59    62    1
   65    62    63    1
   66    64    65    1
   67    64    66    1
   68    64    67    1
   69    67    68    1
   70    67    69    1
   71    69    70    1
   72    67    71    1
   73    71    72    1
   74    71    73    1
   75    73    74    1
   76    45    75    1
   77    71    75    1
   78    75    76    1
   79    75    77    1
   80    77    78    1
   81    64    79    1
   82    77    79    1
   83    77    80    1
   84    80    81    1
   85    80    82    1
   86    80    83    1
   87    83    84    1
   88    85    86    1
   89    85    87    1
   90    85    88    1
   91    88    89    1
   92    88    90    1
   93    90    91    1
   94    88    92    1
   95    92    93    1
   96    92    94    1
   97    94    95    1
   98    66    96    1
   99    92    96    1
  100    96    97    1
  101    96    98    1
  102    98    99    1
  103    85   100    1
  104    98   100    1
  105    98   101    1
  106   101   102    1
  107   101   103    1
  108   101   104    1
  109   104   105    1
  110   106   107    1
  111    12   108    1
  112   106   108    1
  113   106   109    1
  114   109   110    1
  115   109   111    1
  116   111   112    1
  117   109   113    1
  118   113   114    1
  119   113   115    1
  120   115   116    1
  121    87   117    1
  122   113   117    1
  123   117   118    1
  124   117   119    1
  125   119   120    1
  126   106   121    1
  127   119   121    1
  128   119   122    1
  129   122   123    1
  130   122   124    1
  131   122   125    1
  132   125   126    1
  133   127   128    1
  134   127   129    2
  135   127   130    1
  136   130   131    1
  137   130   132    2
  138   132   133    1
  139   132   134    1
  140   134   135    1
  141   134   136    1
  142   134   137    1
  143   137   138    1
  144   137   139    1
  145   137   140    1
  146   140   141    1
  147   140   142    1
  148   140   143    1
@<TRIPOS>SUBSTRUCTURE
       1 MOL1            1 RESIDUE      1      MOL     
       2 MOL1          143 RESIDUE      1      MOL     
@<SCITEGIC>MOL_PROPERTY
feprocess Rank
SciTegic.value.IntegerValue
165

@<SCITEGIC>MOL_PROPERTY
Conf_Id
SciTegic.value.IntegerValue
341

@<SCITEGIC>MOL_PROPERTY
Probability
SciTegic.value.DoubleValue
0.00

@<SCITEGIC>MOL_PROPERTY
G
SciTegic.value.DoubleValue
504.606

@<SCITEGIC>MOL_PROPERTY
E
SciTegic.value.DoubleValue
322.548

@<SCITEGIC>MOL_PROPERTY
-TS
SciTegic.value.DoubleValue
182.059

@<SCITEGIC>MOL_PROPERTY
U+W
SciTegic.value.DoubleValue
196.459

@<SCITEGIC>MOL_PROPERTY
U
SciTegic.value.DoubleValue
262.757

@<SCITEGIC>MOL_PROPERTY
W
SciTegic.value.DoubleValue
-66.297

@<SCITEGIC>MOL_PROPERTY
W(PB)
SciTegic.value.DoubleValue
-72.156

@<SCITEGIC>MOL_PROPERTY
W(SA)
SciTegic.value.DoubleValue
5.859

@<SCITEGIC>MOL_PROPERTY
Valence
SciTegic.value.DoubleValue
154.069

@<SCITEGIC>MOL_PROPERTY
Coulomb
SciTegic.value.DoubleValue
137.029

@<SCITEGIC>MOL_PROPERTY
VdW
SciTegic.value.DoubleValue
-28.341

@<SCITEGIC>MOL_PROPERTY
VdW6
SciTegic.value.DoubleValue
-183.067

@<SCITEGIC>MOL_PROPERTY
VdW12
SciTegic.value.DoubleValue
154.726

@<SCITEGIC>MOL_PROPERTY
Bond
SciTegic.value.DoubleValue
4.483

@<SCITEGIC>MOL_PROPERTY
Angle
SciTegic.value.DoubleValue
12.955

@<SCITEGIC>MOL_PROPERTY
Pdih
SciTegic.value.DoubleValue
136.628

@<SCITEGIC>MOL_PROPERTY
Idih
SciTegic.value.DoubleValue
0.002

@<SCITEGIC>MOL_PROPERTY
Tether
SciTegic.value.DoubleValue
0.000

@<TRIPOS>MOLECULE
CD_guest-s19_fast_vm2_rndm.mol2 : feprocess host+ligand conformer 166
         143         148           2
SMALL
USER_CHARGES
 
@<TRIPOS>ATOM
       1    C1      16.158300   15.144644   21.659713 C.3        1 MOL1         0.2972
       2    H1      15.069698   15.010728   21.703722 H          1 MOL1         0.0751
       3    O1      16.523461   16.535984   21.632460 O.3        1 MOL1        -0.3740
       4    C2      16.813606   14.501539   22.904810 C.3        1 MOL1         0.1003
       5    H2      16.583936   13.428249   22.885052 H          1 MOL1         0.0783
       6    O2      16.283341   15.080060   24.108180 O.3        1 MOL1        -0.5519
       7    H3      15.906770   15.960725   23.860894 H          1 MOL1         0.3769
       8    C3      18.348698   14.665446   22.855312 C.3        1 MOL1         0.1053
       9    H4      18.582500   15.733646   22.964167 H          1 MOL1         0.0783
      10    O3      18.946751   13.928535   23.928097 O.3        1 MOL1        -0.5519
      11    H5      18.425280   14.174394   24.724389 H          1 MOL1         0.3769
      12    C4      18.922344   14.176050   21.504456 C.3        1 MOL1         0.1018
      13    H6      18.926929   13.077954   21.507071 H          1 MOL1         0.0783
      14    C5      18.129795   14.709995   20.275659 C.3        1 MOL1         0.1043
      15    H7      18.347398   15.780721   20.176164 H          1 MOL1         0.0783
      16    O4      16.704100   14.524304   20.477591 O.3        1 MOL1        -0.3740
      17    C6      18.518565   14.044935   18.934037 C.3        1 MOL1         0.0138
      18    H8      19.508859   14.413803   18.635424 H          1 MOL1         0.0794
      19    H9      17.808149   14.371859   18.162900 H          1 MOL1         0.0794
      20    O5      18.533922   12.614516   19.024394 O.3        1 MOL1        -0.5486
      21    H10     18.722602   12.262086   18.127499 H          1 MOL1         0.3769
      22    C7      14.817749   20.265791   20.909327 C.3        1 MOL1         0.2972
      23    H11     14.141399   21.077817   20.613514 H          1 MOL1         0.0751
      24    O6      16.081763   20.765909   21.381234 O.3        1 MOL1        -0.3740
      25    C8      14.187073   19.452295   22.066242 C.3        1 MOL1         0.1003
      26    H12     13.236669   19.039058   21.704285 H          1 MOL1         0.0783
      27    O7      13.937048   20.300239   23.198788 O.3        1 MOL1        -0.5519
      28    H13     14.634870   21.002493   23.192008 H          1 MOL1         0.3769
      29    C9      15.103994   18.272674   22.464570 C.3        1 MOL1         0.1053
      30    H14     16.026066   18.683311   22.898523 H          1 MOL1         0.0783
      31    O8      14.438548   17.449370   23.428329 O.3        1 MOL1        -0.5519
      32    H15     14.055235   18.079674   24.078555 H          1 MOL1         0.3769
      33    C10     15.483680   17.436559   21.219964 C.3        1 MOL1         0.1018
      34    H16     14.589607   16.904278   20.869277 H          1 MOL1         0.0783
      35    C11     16.029421   18.320488   20.064821 C.3        1 MOL1         0.1043
      36    H17     16.979287   18.762731   20.388369 H          1 MOL1         0.0783
      37    O9      15.073634   19.378746   19.797355 O.3        1 MOL1        -0.3740
      38    C12     16.314797   17.559072   18.744052 C.3        1 MOL1         0.0138
      39    H18     17.343221   17.178519   18.776167 H          1 MOL1         0.0794
      40    H19     16.271026   18.273369   17.911263 H          1 MOL1         0.0794
      41    O10     15.409652   16.472798   18.511128 O.3        1 MOL1        -0.5486
      42    H20     15.686798   15.736422   19.104599 H          1 MOL1         0.3769
      43    C13     18.491844   24.165643   21.142429 C.3        1 MOL1         0.2972
      44    H21     18.870441   25.174124   20.933498 H          1 MOL1         0.0751
      45    O11     19.492506   23.342145   21.767049 O.3        1 MOL1        -0.3740
      46    C14     17.301531   24.244617   22.129707 C.3        1 MOL1         0.1003
      47    H22     16.528522   24.875821   21.672503 H          1 MOL1         0.0783
      48    O12     17.727803   24.829644   23.371003 O.3        1 MOL1        -0.5519
      49    H23     18.632769   24.474721   23.552191 H          1 MOL1         0.3769
      50    C15     16.696732   22.841913   22.377525 C.3        1 MOL1         0.1053
      51    H24     17.434137   22.240123   22.927229 H          1 MOL1         0.0783
      52    O13     15.497689   22.966277   23.150720 O.3        1 MOL1        -0.5519
      53    H25     15.729606   23.575630   23.886384 H          1 MOL1         0.3769
      54    C16     16.393078   22.125929   21.040438 C.3        1 MOL1         0.1018
      55    H26     15.550171   22.636097   20.556032 H          1 MOL1         0.0783
      56    C17     17.621224   22.142116   20.088801 C.3        1 MOL1         0.1043
      57    H27     18.426894   21.558339   20.550949 H          1 MOL1         0.0783
      58    O14     18.050281   23.518416   19.928392 O.3        1 MOL1        -0.3740
      59    C18     17.380860   21.525872   18.687025 C.3        1 MOL1         0.0138
      60    H28     17.575797   20.447045   18.745745 H          1 MOL1         0.0794
      61    H29     18.122347   21.939865   17.991396 H          1 MOL1         0.0794
      62    O15     16.056801   21.750698   18.189169 O.3        1 MOL1        -0.5486
      63    H30     15.492601   21.036619   18.564830 H          1 MOL1         0.3769
      64    C19     23.640554   22.838981   21.821167 C.3        1 MOL1         0.2972
      65    H31     24.721373   23.023047   21.772550 H          1 MOL1         0.0751
      66    O16     23.353857   21.447130   22.052798 O.3        1 MOL1        -0.3740
      67    C20     23.030304   23.648484   22.991306 C.3        1 MOL1         0.1003
      68    H32     23.265163   24.706987   22.819879 H          1 MOL1         0.0783
      69    O17     23.608057   23.227523   24.237319 O.3        1 MOL1        -0.5519
      70    H33     23.814952   22.266044   24.139908 H          1 MOL1         0.3769
      71    C21     21.491143   23.501187   23.032992 C.3        1 MOL1         0.1053
      72    H34     21.252760   22.467236   23.315577 H          1 MOL1         0.0783
      73    O18     20.951564   24.406182   24.003667 O.3        1 MOL1        -0.5519
      74    H35     21.498827   24.272297   24.808802 H          1 MOL1         0.3769
      75    C22     20.858751   23.775885   21.647692 C.3        1 MOL1         0.1018
      76    H36     20.931648   24.851543   21.440334 H          1 MOL1         0.0783
      77    C23     21.573014   22.968366   20.525975 C.3        1 MOL1         0.1043
      78    H37     21.392235   21.901728   20.710964 H          1 MOL1         0.0783
      79    O19     22.996910   23.237980   20.593140 O.3        1 MOL1        -0.3740
      80    C24     21.101927   23.257894   19.078946 C.3        1 MOL1         0.0138
      81    H38     20.238544   22.616342   18.861946 H          1 MOL1         0.0794
      82    H39     21.896921   22.954254   18.385436 H          1 MOL1         0.0794
      83    O20     20.760595   24.631021   18.859098 O.3        1 MOL1        -0.5486
      84    H40     19.783924   24.689800   18.950682 H          1 MOL1         0.3769
      85    C25     25.033499   17.675208   21.332754 C.3        1 MOL1         0.2972
      86    H41     25.736401   16.878479   21.057880 H          1 MOL1         0.0751
      87    O21     23.748971   17.140996   21.702171 O.3        1 MOL1        -0.3740
      88    C26     25.584771   18.453739   22.552118 C.3        1 MOL1         0.1003
      89    H42     26.569846   18.851936   22.276250 H          1 MOL1         0.0783
      90    O22     25.723485   17.572869   23.678538 O.3        1 MOL1        -0.5519
      91    H43     24.994282   16.909666   23.607653 H          1 MOL1         0.3769
      92    C27     24.667093   19.646247   22.907869 C.3        1 MOL1         0.1053
      93    H44     23.713172   19.242396   23.271483 H          1 MOL1         0.0783
      94    O23     25.284010   20.437755   23.929593 O.3        1 MOL1        -0.5519
      95    H45     25.578498   19.792728   24.609811 H          1 MOL1         0.3769
      96    C28     24.381561   20.517606   21.661185 C.3        1 MOL1         0.1018
      97    H46     25.311372   21.028091   21.377895 H          1 MOL1         0.0783
      98    C29     23.883459   19.654126   20.466548 C.3        1 MOL1         0.1043
      99    H47     22.909300   19.221780   20.734273 H          1 MOL1         0.0783
     100    O24     24.845792   18.593058   20.235389 O.3        1 MOL1        -0.3740
     101    C30     23.691449   20.411756   19.128438 C.3        1 MOL1         0.0138
     102    H48     22.677678   20.828172   19.106863 H          1 MOL1         0.0794
     103    H49     23.747465   19.687852   18.305033 H          1 MOL1         0.0794
     104    O25     24.651860   21.454589   18.927061 O.3        1 MOL1        -0.5486
     105    H50     24.304478   22.245930   19.400042 H          1 MOL1         0.3769
     106    C31     21.266541   13.882603   20.872705 C.3        1 MOL1         0.2972
     107    H51     20.860038   12.926331   20.518977 H          1 MOL1         0.0751
     108    O26     20.249118   14.720589   21.445944 O.3        1 MOL1        -0.3740
     109    C32     22.335974   13.656871   21.970818 C.3        1 MOL1         0.1003
     110    H52     23.128997   13.033161   21.538349 H          1 MOL1         0.0783
     111    O27     21.763151   12.984099   23.104818 O.3        1 MOL1        -0.5519
     112    H53     20.908465   13.439749   23.312701 H          1 MOL1         0.3769
     113    C33     22.965410   15.003126   22.409330 C.3        1 MOL1         0.1053
     114    H54     22.196584   15.585452   22.936382 H          1 MOL1         0.0783
     115    O28     24.068461   14.751455   23.287533 O.3        1 MOL1        -0.5519
     116    H55     23.734816   14.094115   23.937530 H          1 MOL1         0.3769
     117    C34     23.441002   15.831099   21.189461 C.3        1 MOL1         0.1018
     118    H56     24.323794   15.336630   20.763346 H          1 MOL1         0.0783
     119    C35     22.334830   15.941287   20.101046 C.3        1 MOL1         0.1043
     120    H57     21.503024   16.528503   20.509927 H          1 MOL1         0.0783
     121    O29     21.878660   14.604209   19.784172 O.3        1 MOL1        -0.3740
     122    C36     22.752870   16.625139   18.775521 C.3        1 MOL1         0.0138
     123    H58     22.586019   17.704562   18.875031 H          1 MOL1         0.0794
     124    H59     22.076969   16.281465   17.981030 H          1 MOL1         0.0794
     125    O30     24.114764   16.371724   18.411110 O.3        1 MOL1        -0.5486
     126    H60     24.654966   17.055727   18.869353 H          1 MOL1         0.3769
     127    C1      19.901185   18.846735   19.809615 C.2        1 MOL1         0.6173
     128    O1      20.274555   19.966538   19.512145 O.co2      1 MOL1        -0.6755
     129    O2      19.798013   17.937052   19.009317 O.co2      1 MOL1        -0.6755
     130    C2      19.516306   18.550076   21.214801 C.2        1 MOL1        -0.1504
     131    H1      19.201980   17.529371   21.411622 H          1 MOL1         0.0814
     132    C3      19.524543   19.458232   22.214999 C.2        1 MOL1        -0.1394
     133    H2      19.838659   20.485864   22.039450 H          1 MOL1         0.0817
     134    C4      19.105086   19.130852   23.631420 C.3        1 MOL1        -0.1849
     135    H3      18.356885   18.327037   23.618585 H          1 MOL1         0.0736
     136    H4      18.613992   20.000850   24.087062 H          1 MOL1         0.0736
     137    C5      20.301739   18.690252   24.501156 C.3        1 MOL1        -0.1866
     138    H5      19.929460   18.313686   25.463440 H          1 MOL1         0.0738
     139    H6      20.822959   17.853782   24.014870 H          1 MOL1         0.0738
     140    C6      21.293013   19.844021   24.759645 C.3        1 MOL1        -0.2879
     141    H7      20.800626   20.676820   25.277910 H          1 MOL1         0.0750
     142    H8      22.131802   19.504126   25.380297 H          1 MOL1         0.0750
     143    H9      21.702151   20.223873   23.816666 H          1 MOL1         0.0750
@<TRIPOS>BOND
    1     1     2    1
    2     1     3    1
    3     1     4    1
    4     4     5    1
    5     4     6    1
    6     6     7    1
    7     4     8    1
    8     8     9    1
    9     8    10    1
   10    10    11    1
   11     8    12    1
   12    12    13    1
   13    12    14    1
   14    14    15    1
   15     1    16    1
   16    14    16    1
   17    14    17    1
   18    17    18    1
   19    17    19    1
   20    17    20    1
   21    20    21    1
   22    22    23    1
   23    22    24    1
   24    22    25    1
   25    25    26    1
   26    25    27    1
   27    27    28    1
   28    25    29    1
   29    29    30    1
   30    29    31    1
   31    31    32    1
   32     3    33    1
   33    29    33    1
   34    33    34    1
   35    33    35    1
   36    35    36    1
   37    22    37    1
   38    35    37    1
   39    35    38    1
   40    38    39    1
   41    38    40    1
   42    38    41    1
   43    41    42    1
   44    43    44    1
   45    43    45    1
   46    43    46    1
   47    46    47    1
   48    46    48    1
   49    48    49    1
   50    46    50    1
   51    50    51    1
   52    50    52    1
   53    52    53    1
   54    24    54    1
   55    50    54    1
   56    54    55    1
   57    54    56    1
   58    56    57    1
   59    43    58    1
   60    56    58    1
   61    56    59    1
   62    59    60    1
   63    59    61    1
   64    59    62    1
   65    62    63    1
   66    64    65    1
   67    64    66    1
   68    64    67    1
   69    67    68    1
   70    67    69    1
   71    69    70    1
   72    67    71    1
   73    71    72    1
   74    71    73    1
   75    73    74    1
   76    45    75    1
   77    71    75    1
   78    75    76    1
   79    75    77    1
   80    77    78    1
   81    64    79    1
   82    77    79    1
   83    77    80    1
   84    80    81    1
   85    80    82    1
   86    80    83    1
   87    83    84    1
   88    85    86    1
   89    85    87    1
   90    85    88    1
   91    88    89    1
   92    88    90    1
   93    90    91    1
   94    88    92    1
   95    92    93    1
   96    92    94    1
   97    94    95    1
   98    66    96    1
   99    92    96    1
  100    96    97    1
  101    96    98    1
  102    98    99    1
  103    85   100    1
  104    98   100    1
  105    98   101    1
  106   101   102    1
  107   101   103    1
  108   101   104    1
  109   104   105    1
  110   106   107    1
  111    12   108    1
  112   106   108    1
  113   106   109    1
  114   109   110    1
  115   109   111    1
  116   111   112    1
  117   109   113    1
  118   113   114    1
  119   113   115    1
  120   115   116    1
  121    87   117    1
  122   113   117    1
  123   117   118    1
  124   117   119    1
  125   119   120    1
  126   106   121    1
  127   119   121    1
  128   119   122    1
  129   122   123    1
  130   122   124    1
  131   122   125    1
  132   125   126    1
  133   127   128    1
  134   127   129    2
  135   127   130    1
  136   130   131    1
  137   130   132    2
  138   132   133    1
  139   132   134    1
  140   134   135    1
  141   134   136    1
  142   134   137    1
  143   137   138    1
  144   137   139    1
  145   137   140    1
  146   140   141    1
  147   140   142    1
  148   140   143    1
@<TRIPOS>SUBSTRUCTURE
       1 MOL1            1 RESIDUE      1      MOL     
       2 MOL1          143 RESIDUE      1      MOL     
@<SCITEGIC>MOL_PROPERTY
feprocess Rank
SciTegic.value.IntegerValue
166

@<SCITEGIC>MOL_PROPERTY
Conf_Id
SciTegic.value.IntegerValue
683

@<SCITEGIC>MOL_PROPERTY
Probability
SciTegic.value.DoubleValue
0.00

@<SCITEGIC>MOL_PROPERTY
G
SciTegic.value.DoubleValue
504.677

@<SCITEGIC>MOL_PROPERTY
E
SciTegic.value.DoubleValue
323.759

@<SCITEGIC>MOL_PROPERTY
-TS
SciTegic.value.DoubleValue
180.918

@<SCITEGIC>MOL_PROPERTY
U+W
SciTegic.value.DoubleValue
197.671

@<SCITEGIC>MOL_PROPERTY
U
SciTegic.value.DoubleValue
263.823

@<SCITEGIC>MOL_PROPERTY
W
SciTegic.value.DoubleValue
-66.152

@<SCITEGIC>MOL_PROPERTY
W(PB)
SciTegic.value.DoubleValue
-72.032

@<SCITEGIC>MOL_PROPERTY
W(SA)
SciTegic.value.DoubleValue
5.880

@<SCITEGIC>MOL_PROPERTY
Valence
SciTegic.value.DoubleValue
152.224

@<SCITEGIC>MOL_PROPERTY
Coulomb
SciTegic.value.DoubleValue
140.986

@<SCITEGIC>MOL_PROPERTY
VdW
SciTegic.value.DoubleValue
-29.387

@<SCITEGIC>MOL_PROPERTY
VdW6
SciTegic.value.DoubleValue
-182.847

@<SCITEGIC>MOL_PROPERTY
VdW12
SciTegic.value.DoubleValue
153.460

@<SCITEGIC>MOL_PROPERTY
Bond
SciTegic.value.DoubleValue
4.288

@<SCITEGIC>MOL_PROPERTY
Angle
SciTegic.value.DoubleValue
13.244

@<SCITEGIC>MOL_PROPERTY
Pdih
SciTegic.value.DoubleValue
134.690

@<SCITEGIC>MOL_PROPERTY
Idih
SciTegic.value.DoubleValue
0.002

@<SCITEGIC>MOL_PROPERTY
Tether
SciTegic.value.DoubleValue
0.000

@<TRIPOS>MOLECULE
CD_guest-s19_fast_vm2_rndm.mol2 : feprocess host+ligand conformer 167
         143         148           2
SMALL
USER_CHARGES
 
@<TRIPOS>ATOM
       1    C1      16.295973   15.416233   20.213690 C.3        1 MOL1         0.2972
       2    H1      15.313230   15.427213   19.725138 H          1 MOL1         0.0751
       3    O1      16.543415   16.636452   20.937071 O.3        1 MOL1        -0.3740
       4    C2      16.424231   14.214661   21.182754 C.3        1 MOL1         0.1003
       5    H2      16.299357   13.304555   20.581824 H          1 MOL1         0.0783
       6    O2      15.403888   14.247011   22.193501 O.3        1 MOL1        -0.5519
       7    H3      15.495909   15.106768   22.676006 H          1 MOL1         0.3769
       8    C3      17.832520   14.162783   21.828081 C.3        1 MOL1         0.1053
       9    H4      17.916605   15.000165   22.534027 H          1 MOL1         0.0783
      10    O3      17.969512   12.919664   22.524612 O.3        1 MOL1        -0.5519
      11    H5      17.238657   12.906122   23.179388 H          1 MOL1         0.3769
      12    C4      18.973785   14.300715   20.782253 C.3        1 MOL1         0.1018
      13    H6      19.088579   13.332331   20.278528 H          1 MOL1         0.0783
      14    C5      18.692971   15.409639   19.721471 C.3        1 MOL1         0.1043
      15    H7      18.807757   16.385959   20.210607 H          1 MOL1         0.0783
      16    O4      17.337459   15.276095   19.227981 O.3        1 MOL1        -0.3740
      17    C6      19.629586   15.414461   18.484701 C.3        1 MOL1         0.0138
      18    H8      20.464965   16.095479   18.678908 H          1 MOL1         0.0794
      19    H9      19.079000   15.838196   17.634093 H          1 MOL1         0.0794
      20    O5      20.129866   14.118148   18.139544 O.3        1 MOL1        -0.5486
      21    H10     20.860090   13.919326   18.770990 H          1 MOL1         0.3769
      22    C7      14.892983   20.216973   22.079171 C.3        1 MOL1         0.2972
      23    H11     14.250369   21.056829   22.373994 H          1 MOL1         0.0751
      24    O6      16.262854   20.636895   21.915083 O.3        1 MOL1        -0.3740
      25    C8      14.842735   19.122771   23.171523 C.3        1 MOL1         0.1003
      26    H12     13.800111   18.792922   23.264583 H          1 MOL1         0.0783
      27    O7      15.277075   19.680603   24.422487 O.3        1 MOL1        -0.5519
      28    H13     15.886304   20.424466   24.204378 H          1 MOL1         0.3769
      29    C9      15.695195   17.892100   22.771694 C.3        1 MOL1         0.1053
      30    H14     16.754067   18.180493   22.821602 H          1 MOL1         0.0783
      31    O8      15.443631   16.801429   23.666012 O.3        1 MOL1        -0.5519
      32    H15     16.263577   16.715410   24.225282 H          1 MOL1         0.3769
      33    C10     15.397010   17.415647   21.328023 C.3        1 MOL1         0.1018
      34    H16     14.474600   16.819613   21.337316 H          1 MOL1         0.0783
      35    C11     15.275094   18.579405   20.305387 C.3        1 MOL1         0.1043
      36    H17     16.287238   18.962575   20.129902 H          1 MOL1         0.0783
      37    O9      14.447222   19.646573   20.832492 O.3        1 MOL1        -0.3740
      38    C12     14.704115   18.151212   18.932028 C.3        1 MOL1         0.0138
      39    H18     15.460313   17.548136   18.411612 H          1 MOL1         0.0794
      40    H19     14.533967   19.051453   18.326195 H          1 MOL1         0.0794
      41    O10     13.489814   17.402121   19.062149 O.3        1 MOL1        -0.5486
      42    H20     13.139285   17.242418   18.158693 H          1 MOL1         0.3769
      43    C13     18.492089   24.117140   21.302827 C.3        1 MOL1         0.2972
      44    H21     18.800975   25.145624   21.076316 H          1 MOL1         0.0751
      45    O11     19.629826   23.276232   21.579836 O.3        1 MOL1        -0.3740
      46    C14     17.583331   24.110090   22.557387 C.3        1 MOL1         0.1003
      47    H22     16.701967   24.724674   22.332436 H          1 MOL1         0.0783
      48    O12     18.276460   24.673322   23.680503 O.3        1 MOL1        -0.5519
      49    H23     19.208120   24.357885   23.620650 H          1 MOL1         0.3769
      50    C15     17.097787   22.675709   22.874776 C.3        1 MOL1         0.1053
      51    H24     17.968589   22.069781   23.157049 H          1 MOL1         0.0783
      52    O13     16.161779   22.713076   23.956174 O.3        1 MOL1        -0.5519
      53    H25     16.576994   23.293256   24.632272 H          1 MOL1         0.3769
      54    C16     16.444944   22.036131   21.626123 C.3        1 MOL1         0.1018
      55    H26     15.491099   22.544614   21.432647 H          1 MOL1         0.0783
      56    C17     17.349943   22.163119   20.368940 C.3        1 MOL1         0.1043
      57    H27     18.243192   21.545210   20.529775 H          1 MOL1         0.0783
      58    O14     17.749262   23.548234   20.202377 O.3        1 MOL1        -0.3740
      59    C18     16.692458   21.687939   19.045585 C.3        1 MOL1         0.0138
      60    H28     16.912579   20.622798   18.907420 H          1 MOL1         0.0794
      61    H29     17.167990   22.216550   18.208764 H          1 MOL1         0.0794
      62    O15     15.275633   21.897076   19.007142 O.3        1 MOL1        -0.5486
      63    H30     14.865118   21.234017   19.610426 H          1 MOL1         0.3769
      64    C19     23.584358   22.560539   20.514162 C.3        1 MOL1         0.2972
      65    H31     24.603773   22.588746   20.108456 H          1 MOL1         0.0751
      66    O16     23.273619   21.268045   21.072133 O.3        1 MOL1        -0.3740
      67    C20     23.374703   23.663048   21.586224 C.3        1 MOL1         0.1003
      68    H32     23.531479   24.628749   21.088281 H          1 MOL1         0.0783
      69    O17     24.308807   23.544107   22.670037 O.3        1 MOL1        -0.5519
      70    H33     24.128944   22.676136   23.112619 H          1 MOL1         0.3769
      71    C21     21.922645   23.635839   22.120446 C.3        1 MOL1         0.1053
      72    H34     21.787627   22.703013   22.685761 H          1 MOL1         0.0783
      73    O18     21.714952   24.763181   22.978723 O.3        1 MOL1        -0.5519
      74    H35     22.484823   24.770339   23.588381 H          1 MOL1         0.3769
      75    C22     20.881403   23.658604   20.971368 C.3        1 MOL1         0.1018
      76    H36     20.847283   24.678288   20.566200 H          1 MOL1         0.0783
      77    C23     21.232112   22.651953   19.833380 C.3        1 MOL1         0.1043
      78    H37     21.070129   21.635477   20.215443 H          1 MOL1         0.0783
      79    O19     22.626021   22.811076   19.465173 O.3        1 MOL1        -0.3740
      80    C24     20.391819   22.780501   18.536648 C.3        1 MOL1         0.0138
      81    H38     19.519801   22.122189   18.618735 H          1 MOL1         0.0794
      82    H39     20.989250   22.402177   17.696355 H          1 MOL1         0.0794
      83    O20     19.962434   24.118699   18.264879 O.3        1 MOL1        -0.5486
      84    H40     19.138277   24.257958   18.785521 H          1 MOL1         0.3769
      85    C25     24.825192   17.704521   22.398962 C.3        1 MOL1         0.2972
      86    H41     25.425204   16.864989   22.773734 H          1 MOL1         0.0751
      87    O21     23.512262   17.280718   21.988196 O.3        1 MOL1        -0.3740
      88    C26     24.665992   18.774685   23.504238 C.3        1 MOL1         0.1003
      89    H42     25.668607   19.148024   23.750233 H          1 MOL1         0.0783
      90    O22     24.068420   18.207682   24.681662 O.3        1 MOL1        -0.5519
      91    H43     23.731424   17.311966   24.433038 H          1 MOL1         0.3769
      92    C27     23.822826   19.963481   22.991830 C.3        1 MOL1         0.1053
      93    H44     22.797040   19.605294   22.829731 H          1 MOL1         0.0783
      94    O23     23.823997   20.998738   23.980174 O.3        1 MOL1        -0.5519
      95    H45     23.600306   20.541233   24.821187 H          1 MOL1         0.3769
      96    C28     24.358001   20.512027   21.644604 C.3        1 MOL1         0.1018
      97    H46     25.241110   21.134376   21.840674 H          1 MOL1         0.0783
      98    C29     24.709529   19.389155   20.624983 C.3        1 MOL1         0.1043
      99    H47     23.764512   18.981334   20.245310 H          1 MOL1         0.0783
     100    O24     25.461102   18.322545   21.261283 O.3        1 MOL1        -0.3740
     101    C30     25.511315   19.889507   19.399794 C.3        1 MOL1         0.0138
     102    H48     24.845111   20.494880   18.770441 H          1 MOL1         0.0794
     103    H49     25.820326   19.020029   18.804002 H          1 MOL1         0.0794
     104    O25     26.654761   20.663588   19.782111 O.3        1 MOL1        -0.5486
     105    H50     27.160231   20.872275   18.966230 H          1 MOL1         0.3769
     106    C31     21.302233   13.801480   21.385891 C.3        1 MOL1         0.2972
     107    H51     20.994984   12.767752   21.182447 H          1 MOL1         0.0751
     108    O26     20.155557   14.664577   21.530748 O.3        1 MOL1        -0.3740
     109    C32     22.142871   13.845607   22.690548 C.3        1 MOL1         0.1003
     110    H52     23.032035   13.225375   22.518779 H          1 MOL1         0.0783
     111    O27     21.417593   13.307803   23.805617 O.3        1 MOL1        -0.5519
     112    H53     20.705344   13.966361   24.036894 H          1 MOL1         0.3769
     113    C33     22.620016   15.285577   22.988892 C.3        1 MOL1         0.1053
     114    H54     21.737064   15.907577   23.181551 H          1 MOL1         0.0783
     115    O28     23.480208   15.288654   24.133193 O.3        1 MOL1        -0.5519
     116    H55     23.002584   14.755568   24.808276 H          1 MOL1         0.3769
     117    C34     23.356584   15.870225   21.763003 C.3        1 MOL1         0.1018
     118    H56     24.321829   15.359517   21.648004 H          1 MOL1         0.0783
     119    C35     22.531745   15.704541   20.460161 C.3        1 MOL1         0.1043
     120    H57     21.637971   16.334852   20.552972 H          1 MOL1         0.0783
     121    O29     22.125098   14.317892   20.312195 O.3        1 MOL1        -0.3740
     122    C36     23.276776   16.157032   19.175499 C.3        1 MOL1         0.0138
     123    H58     23.065418   17.221117   19.010219 H          1 MOL1         0.0794
     124    H59     22.860943   15.613855   18.316393 H          1 MOL1         0.0794
     125    O30     24.694607   15.958715   19.240863 O.3        1 MOL1        -0.5486
     126    H60     25.052560   16.614861   19.882375 H          1 MOL1         0.3769
     127    C1      19.170675   16.396591   24.710639 C.2        1 MOL1         0.6173
     128    O1      17.954043   16.401295   24.732638 O.co2      1 MOL1        -0.6755
     129    O2      19.834293   15.380520   24.785696 O.co2      1 MOL1        -0.6755
     130    C2      19.903859   17.685400   24.583328 C.2        1 MOL1        -0.1504
     131    H1      20.988845   17.616802   24.592028 H          1 MOL1         0.0814
     132    C3      19.297718   18.889356   24.475207 C.2        1 MOL1        -0.1394
     133    H2      18.211392   18.969264   24.474569 H          1 MOL1         0.0817
     134    C4      20.049034   20.198206   24.375847 C.3        1 MOL1        -0.1849
     135    H3      19.860287   20.664780   23.400186 H          1 MOL1         0.0736
     136    H4      21.129598   20.018143   24.434229 H          1 MOL1         0.0736
     137    C5      19.635100   21.156778   25.509831 C.3        1 MOL1        -0.1866
     138    H5      18.559446   21.369261   25.443031 H          1 MOL1         0.0738
     139    H6      19.803354   20.670644   26.480627 H          1 MOL1         0.0738
     140    C6      20.428261   22.475563   25.454710 C.3        1 MOL1        -0.2879
     141    H7      20.267017   22.980862   24.497652 H          1 MOL1         0.0750
     142    H8      20.111327   23.154603   26.256464 H          1 MOL1         0.0750
     143    H9      21.504902   22.292871   25.566457 H          1 MOL1         0.0750
@<TRIPOS>BOND
    1     1     2    1
    2     1     3    1
    3     1     4    1
    4     4     5    1
    5     4     6    1
    6     6     7    1
    7     4     8    1
    8     8     9    1
    9     8    10    1
   10    10    11    1
   11     8    12    1
   12    12    13    1
   13    12    14    1
   14    14    15    1
   15     1    16    1
   16    14    16    1
   17    14    17    1
   18    17    18    1
   19    17    19    1
   20    17    20    1
   21    20    21    1
   22    22    23    1
   23    22    24    1
   24    22    25    1
   25    25    26    1
   26    25    27    1
   27    27    28    1
   28    25    29    1
   29    29    30    1
   30    29    31    1
   31    31    32    1
   32     3    33    1
   33    29    33    1
   34    33    34    1
   35    33    35    1
   36    35    36    1
   37    22    37    1
   38    35    37    1
   39    35    38    1
   40    38    39    1
   41    38    40    1
   42    38    41    1
   43    41    42    1
   44    43    44    1
   45    43    45    1
   46    43    46    1
   47    46    47    1
   48    46    48    1
   49    48    49    1
   50    46    50    1
   51    50    51    1
   52    50    52    1
   53    52    53    1
   54    24    54    1
   55    50    54    1
   56    54    55    1
   57    54    56    1
   58    56    57    1
   59    43    58    1
   60    56    58    1
   61    56    59    1
   62    59    60    1
   63    59    61    1
   64    59    62    1
   65    62    63    1
   66    64    65    1
   67    64    66    1
   68    64    67    1
   69    67    68    1
   70    67    69    1
   71    69    70    1
   72    67    71    1
   73    71    72    1
   74    71    73    1
   75    73    74    1
   76    45    75    1
   77    71    75    1
   78    75    76    1
   79    75    77    1
   80    77    78    1
   81    64    79    1
   82    77    79    1
   83    77    80    1
   84    80    81    1
   85    80    82    1
   86    80    83    1
   87    83    84    1
   88    85    86    1
   89    85    87    1
   90    85    88    1
   91    88    89    1
   92    88    90    1
   93    90    91    1
   94    88    92    1
   95    92    93    1
   96    92    94    1
   97    94    95    1
   98    66    96    1
   99    92    96    1
  100    96    97    1
  101    96    98    1
  102    98    99    1
  103    85   100    1
  104    98   100    1
  105    98   101    1
  106   101   102    1
  107   101   103    1
  108   101   104    1
  109   104   105    1
  110   106   107    1
  111    12   108    1
  112   106   108    1
  113   106   109    1
  114   109   110    1
  115   109   111    1
  116   111   112    1
  117   109   113    1
  118   113   114    1
  119   113   115    1
  120   115   116    1
  121    87   117    1
  122   113   117    1
  123   117   118    1
  124   117   119    1
  125   119   120    1
  126   106   121    1
  127   119   121    1
  128   119   122    1
  129   122   123    1
  130   122   124    1
  131   122   125    1
  132   125   126    1
  133   127   128    1
  134   127   129    2
  135   127   130    1
  136   130   131    1
  137   130   132    2
  138   132   133    1
  139   132   134    1
  140   134   135    1
  141   134   136    1
  142   134   137    1
  143   137   138    1
  144   137   139    1
  145   137   140    1
  146   140   141    1
  147   140   142    1
  148   140   143    1
@<TRIPOS>SUBSTRUCTURE
       1 MOL1            1 RESIDUE      1      MOL     
       2 MOL1          143 RESIDUE      1      MOL     
@<SCITEGIC>MOL_PROPERTY
feprocess Rank
SciTegic.value.IntegerValue
167

@<SCITEGIC>MOL_PROPERTY
Conf_Id
SciTegic.value.IntegerValue
734

@<SCITEGIC>MOL_PROPERTY
Probability
SciTegic.value.DoubleValue
0.00

@<SCITEGIC>MOL_PROPERTY
G
SciTegic.value.DoubleValue
504.702

@<SCITEGIC>MOL_PROPERTY
E
SciTegic.value.DoubleValue
322.404

@<SCITEGIC>MOL_PROPERTY
-TS
SciTegic.value.DoubleValue
182.298

@<SCITEGIC>MOL_PROPERTY
U+W
SciTegic.value.DoubleValue
196.316

@<SCITEGIC>MOL_PROPERTY
U
SciTegic.value.DoubleValue
271.037

@<SCITEGIC>MOL_PROPERTY
W
SciTegic.value.DoubleValue
-74.721

@<SCITEGIC>MOL_PROPERTY
W(PB)
SciTegic.value.DoubleValue
-80.808

@<SCITEGIC>MOL_PROPERTY
W(SA)
SciTegic.value.DoubleValue
6.087

@<SCITEGIC>MOL_PROPERTY
Valence
SciTegic.value.DoubleValue
150.183

@<SCITEGIC>MOL_PROPERTY
Coulomb
SciTegic.value.DoubleValue
141.170

@<SCITEGIC>MOL_PROPERTY
VdW
SciTegic.value.DoubleValue
-20.316

@<SCITEGIC>MOL_PROPERTY
VdW6
SciTegic.value.DoubleValue
-174.393

@<SCITEGIC>MOL_PROPERTY
VdW12
SciTegic.value.DoubleValue
154.077

@<SCITEGIC>MOL_PROPERTY
Bond
SciTegic.value.DoubleValue
4.951

@<SCITEGIC>MOL_PROPERTY
Angle
SciTegic.value.DoubleValue
14.113

@<SCITEGIC>MOL_PROPERTY
Pdih
SciTegic.value.DoubleValue
131.118

@<SCITEGIC>MOL_PROPERTY
Idih
SciTegic.value.DoubleValue
0.001

@<SCITEGIC>MOL_PROPERTY
Tether
SciTegic.value.DoubleValue
0.000

@<TRIPOS>MOLECULE
CD_guest-s19_fast_vm2_rndm.mol2 : feprocess host+ligand conformer 168
         143         148           2
SMALL
USER_CHARGES
 
@<TRIPOS>ATOM
       1    C1      16.227047   15.239428   21.250020 C.3        1 MOL1         0.2972
       2    H1      15.178030   15.020690   21.013671 H          1 MOL1         0.0751
       3    O1      16.426268   16.652035   21.481128 O.3        1 MOL1        -0.3740
       4    C2      16.644993   14.445698   22.515393 C.3        1 MOL1         0.1003
       5    H2      16.561392   13.380455   22.264670 H          1 MOL1         0.0783
       6    O2      15.762015   14.715124   23.614296 O.3        1 MOL1        -0.5519
       7    H3      15.995926   15.606477   23.985280 H          1 MOL1         0.3769
       8    C3      18.129178   14.730095   22.855901 C.3        1 MOL1         0.1053
       9    H4      18.247142   15.804122   23.041611 H          1 MOL1         0.0783
      10    O3      18.544328   13.992011   24.011621 O.3        1 MOL1        -0.5519
      11    H5      18.082351   14.430230   24.774206 H          1 MOL1         0.3769
      12    C4      19.011468   14.378403   21.637224 C.3        1 MOL1         0.1018
      13    H6      18.980202   13.292348   21.478643 H          1 MOL1         0.0783
      14    C5      18.507083   15.101707   20.357137 C.3        1 MOL1         0.1043
      15    H7      18.644972   16.180700   20.506727 H          1 MOL1         0.0783
      16    O4      17.093383   14.824182   20.167879 O.3        1 MOL1        -0.3740
      17    C6      19.260382   14.717427   19.056050 C.3        1 MOL1         0.0138
      18    H8      20.114592   15.394310   18.933782 H          1 MOL1         0.0794
      19    H9      18.594478   14.892894   18.200602 H          1 MOL1         0.0794
      20    O5      19.718840   13.360441   19.045910 O.3        1 MOL1        -0.5486
      21    H10     20.513245   13.318971   19.628070 H          1 MOL1         0.3769
      22    C7      14.997028   20.396575   20.261554 C.3        1 MOL1         0.2972
      23    H11     14.447396   21.221110   19.789445 H          1 MOL1         0.0751
      24    O6      16.193316   20.863278   20.917758 O.3        1 MOL1        -0.3740
      25    C8      14.112419   19.648560   21.293520 C.3        1 MOL1         0.1003
      26    H12     13.260111   19.222929   20.748757 H          1 MOL1         0.0783
      27    O7      13.618356   20.558714   22.289026 O.3        1 MOL1        -0.5519
      28    H13     14.401771   20.903880   22.785221 H          1 MOL1         0.3769
      29    C9      14.909953   18.473666   21.922196 C.3        1 MOL1         0.1053
      30    H14     15.743661   18.902242   22.489260 H          1 MOL1         0.0783
      31    O8      14.086957   17.707224   22.806691 O.3        1 MOL1        -0.5519
      32    H15     14.702897   17.411421   23.527410 H          1 MOL1         0.3769
      33    C10     15.498975   17.546163   20.823943 C.3        1 MOL1         0.1018
      34    H16     14.666472   17.000205   20.361481 H          1 MOL1         0.0783
      35    C11     16.253417   18.360110   19.729840 C.3        1 MOL1         0.1043
      36    H17     17.160527   18.782721   20.181967 H          1 MOL1         0.0783
      37    O9      15.399776   19.435495   19.264083 O.3        1 MOL1        -0.3740
      38    C12     16.701612   17.557288   18.482083 C.3        1 MOL1         0.0138
      39    H18     17.696073   17.139204   18.672768 H          1 MOL1         0.0794
      40    H19     16.813314   18.255744   17.642001 H          1 MOL1         0.0794
      41    O10     15.794360   16.508815   18.125681 O.3        1 MOL1        -0.5486
      42    H20     16.011777   15.741888   18.704812 H          1 MOL1         0.3769
      43    C13     18.413701   24.101781   22.045520 C.3        1 MOL1         0.2972
      44    H21     18.844614   25.071291   22.326847 H          1 MOL1         0.0751
      45    O11     19.425247   23.083348   21.914474 O.3        1 MOL1        -0.3740
      46    C14     17.404347   23.643896   23.122590 C.3        1 MOL1         0.1003
      47    H22     16.591318   24.380900   23.152941 H          1 MOL1         0.0783
      48    O12     18.037770   23.579669   24.410522 O.3        1 MOL1        -0.5519
      49    H23     19.003681   23.437917   24.250807 H          1 MOL1         0.3769
      50    C15     16.796534   22.273768   22.748284 C.3        1 MOL1         0.1053
      51    H24     17.594996   21.527841   22.813724 H          1 MOL1         0.0783
      52    O13     15.762657   21.946088   23.680753 O.3        1 MOL1        -0.5519
      53    H25     16.160952   22.108668   24.564942 H          1 MOL1         0.3769
      54    C16     16.243576   22.251840   21.299439 C.3        1 MOL1         0.1018
      55    H26     15.250800   22.721134   21.292834 H          1 MOL1         0.0783
      56    C17     17.182290   22.949106   20.270801 C.3        1 MOL1         0.1043
      57    H27     18.019340   22.266316   20.078847 H          1 MOL1         0.0783
      58    O14     17.708594   24.197793   20.791402 O.3        1 MOL1        -0.3740
      59    C18     16.507123   23.230962   18.907525 C.3        1 MOL1         0.0138
      60    H28     16.344945   22.273587   18.394022 H          1 MOL1         0.0794
      61    H29     17.197988   23.819636   18.288990 H          1 MOL1         0.0794
      62    O15     15.259896   23.920408   19.055646 O.3        1 MOL1        -0.5486
      63    H30     14.929154   24.135346   18.156150 H          1 MOL1         0.3769
      64    C19     23.575039   22.686817   21.571950 C.3        1 MOL1         0.2972
      65    H31     24.642596   22.904828   21.439446 H          1 MOL1         0.0751
      66    O16     23.338956   21.271493   21.688262 O.3        1 MOL1        -0.3740
      67    C20     23.063270   23.353924   22.874213 C.3        1 MOL1         0.1003
      68    H32     23.243982   24.433322   22.789201 H          1 MOL1         0.0783
      69    O17     23.778201   22.838857   24.008121 O.3        1 MOL1        -0.5519
      70    H33     24.029233   21.911521   23.781027 H          1 MOL1         0.3769
      71    C21     21.542038   23.133831   23.050377 C.3        1 MOL1         0.1053
      72    H34     21.371328   22.062781   23.218553 H          1 MOL1         0.0783
      73    O18     21.072476   23.883658   24.175311 O.3        1 MOL1        -0.5519
      74    H35     21.723081   23.702285   24.889771 H          1 MOL1         0.3769
      75    C22     20.777226   23.553220   21.772906 C.3        1 MOL1         0.1018
      76    H36     20.828635   24.645267   21.670516 H          1 MOL1         0.0783
      77    C23     21.382272   22.892758   20.506018 C.3        1 MOL1         0.1043
      78    H37     21.232809   21.808518   20.589808 H          1 MOL1         0.0783
      79    O19     22.803282   23.182117   20.454077 O.3        1 MOL1        -0.3740
      80    C24     20.734906   23.340448   19.168940 C.3        1 MOL1         0.0138
      81    H38     19.892880   22.672609   18.949075 H          1 MOL1         0.0794
      82    H39     21.466421   23.202575   18.361484 H          1 MOL1         0.0794
      83    O20     20.275732   24.697220   19.187667 O.3        1 MOL1        -0.5486
      84    H40     19.440224   24.712426   19.710212 H          1 MOL1         0.3769
      85    C25     24.876107   17.554967   20.619319 C.3        1 MOL1         0.2972
      86    H41     25.456118   16.724681   20.196049 H          1 MOL1         0.0751
      87    O21     23.662502   17.095444   21.242795 O.3        1 MOL1        -0.3740
      88    C26     25.699695   18.333533   21.678314 C.3        1 MOL1         0.1003
      89    H42     26.589683   18.731132   21.173522 H          1 MOL1         0.0783
      90    O22     26.112692   17.474496   22.753250 O.3        1 MOL1        -0.5519
      91    H43     25.301109   17.026011   23.103146 H          1 MOL1         0.3769
      92    C27     24.885832   19.531467   22.227488 C.3        1 MOL1         0.1053
      93    H44     24.038122   19.130841   22.797353 H          1 MOL1         0.0783
      94    O23     25.713403   20.323752   23.085558 O.3        1 MOL1        -0.5519
      95    H45     26.168850   19.679203   23.671044 H          1 MOL1         0.3769
      96    C28     24.320015   20.408771   21.082476 C.3        1 MOL1         0.1018
      97    H46     25.149288   20.972686   20.635736 H          1 MOL1         0.0783
      98    C29     23.619198   19.558527   19.983982 C.3        1 MOL1         0.1043
      99    H47     22.703167   19.130534   20.411835 H          1 MOL1         0.0783
     100    O24     24.507028   18.486810   19.579683 O.3        1 MOL1        -0.3740
     101    C30     23.196505   20.338794   18.712141 C.3        1 MOL1         0.0138
     102    H48     22.178233   20.718112   18.857447 H          1 MOL1         0.0794
     103    H49     23.151256   19.634426   17.870814 H          1 MOL1         0.0794
     104    O25     24.073174   21.425229   18.393056 O.3        1 MOL1        -0.5486
     105    H50     23.839178   22.166759   18.998594 H          1 MOL1         0.3769
     106    C31     21.348093   13.825739   22.064435 C.3        1 MOL1         0.2972
     107    H51     20.904355   12.843644   22.272805 H          1 MOL1         0.0751
     108    O26     20.340763   14.848235   21.928383 O.3        1 MOL1        -0.3740
     109    C32     22.296196   14.224643   23.219107 C.3        1 MOL1         0.1003
     110    H52     23.101856   13.480164   23.260933 H          1 MOL1         0.0783
     111    O27     21.589509   14.232212   24.469589 O.3        1 MOL1        -0.5519
     112    H53     20.638371   14.407400   24.262288 H          1 MOL1         0.3769
     113    C33     22.933284   15.605578   22.948356 C.3        1 MOL1         0.1053
     114    H54     22.136753   16.355542   23.009740 H          1 MOL1         0.0783
     115    O28     23.926297   15.877746   23.942578 O.3        1 MOL1        -0.5519
     116    H55     23.487456   15.673296   24.798155 H          1 MOL1         0.3769
     117    C34     23.565139   15.689889   21.536404 C.3        1 MOL1         0.1018
     118    H56     24.548415   15.201570   21.561833 H          1 MOL1         0.0783
     119    C35     22.675305   15.064269   20.423062 C.3        1 MOL1         0.1043
     120    H57     21.853551   15.765293   20.231511 H          1 MOL1         0.0783
     121    O29     22.119266   13.792194   20.846428 O.3        1 MOL1        -0.3740
     122    C36     23.414473   14.852875   19.080175 C.3        1 MOL1         0.0138
     123    H58     23.600670   15.835202   18.625384 H          1 MOL1         0.0794
     124    H59     22.753795   14.299195   18.399464 H          1 MOL1         0.0794
     125    O30     24.653236   14.153391   19.250689 O.3        1 MOL1        -0.5486
     126    H60     25.024812   13.982792   18.357683 H          1 MOL1         0.3769
     127    C1      17.329176   17.055497   25.148251 C.2        1 MOL1         0.6173
     128    O1      17.530456   16.037156   25.781863 O.co2      1 MOL1        -0.6755
     129    O2      16.245001   17.308282   24.653092 O.co2      1 MOL1        -0.6755
     130    C2      18.515499   17.887051   24.806305 C.2        1 MOL1        -0.1504
     131    H1      19.457269   17.535965   25.215637 H          1 MOL1         0.0814
     132    C3      18.466318   18.981011   24.010259 C.2        1 MOL1        -0.1394
     133    H2      17.511431   19.310835   23.610452 H          1 MOL1         0.0817
     134    C4      19.648991   19.834950   23.583024 C.3        1 MOL1        -0.1849
     135    H3      19.778327   20.673998   24.279239 H          1 MOL1         0.0736
     136    H4      19.408766   20.284101   22.611111 H          1 MOL1         0.0736
     137    C5      20.977256   19.062952   23.415895 C.3        1 MOL1        -0.1866
     138    H5      20.765557   18.030597   23.111796 H          1 MOL1         0.0738
     139    H6      21.549279   19.510602   22.594125 H          1 MOL1         0.0738
     140    C6      21.850521   19.093286   24.689476 C.3        1 MOL1        -0.2879
     141    H7      22.187346   20.115790   24.903684 H          1 MOL1         0.0750
     142    H8      21.302316   18.729781   25.566121 H          1 MOL1         0.0750
     143    H9      22.739824   18.463395   24.566123 H          1 MOL1         0.0750
@<TRIPOS>BOND
    1     1     2    1
    2     1     3    1
    3     1     4    1
    4     4     5    1
    5     4     6    1
    6     6     7    1
    7     4     8    1
    8     8     9    1
    9     8    10    1
   10    10    11    1
   11     8    12    1
   12    12    13    1
   13    12    14    1
   14    14    15    1
   15     1    16    1
   16    14    16    1
   17    14    17    1
   18    17    18    1
   19    17    19    1
   20    17    20    1
   21    20    21    1
   22    22    23    1
   23    22    24    1
   24    22    25    1
   25    25    26    1
   26    25    27    1
   27    27    28    1
   28    25    29    1
   29    29    30    1
   30    29    31    1
   31    31    32    1
   32     3    33    1
   33    29    33    1
   34    33    34    1
   35    33    35    1
   36    35    36    1
   37    22    37    1
   38    35    37    1
   39    35    38    1
   40    38    39    1
   41    38    40    1
   42    38    41    1
   43    41    42    1
   44    43    44    1
   45    43    45    1
   46    43    46    1
   47    46    47    1
   48    46    48    1
   49    48    49    1
   50    46    50    1
   51    50    51    1
   52    50    52    1
   53    52    53    1
   54    24    54    1
   55    50    54    1
   56    54    55    1
   57    54    56    1
   58    56    57    1
   59    43    58    1
   60    56    58    1
   61    56    59    1
   62    59    60    1
   63    59    61    1
   64    59    62    1
   65    62    63    1
   66    64    65    1
   67    64    66    1
   68    64    67    1
   69    67    68    1
   70    67    69    1
   71    69    70    1
   72    67    71    1
   73    71    72    1
   74    71    73    1
   75    73    74    1
   76    45    75    1
   77    71    75    1
   78    75    76    1
   79    75    77    1
   80    77    78    1
   81    64    79    1
   82    77    79    1
   83    77    80    1
   84    80    81    1
   85    80    82    1
   86    80    83    1
   87    83    84    1
   88    85    86    1
   89    85    87    1
   90    85    88    1
   91    88    89    1
   92    88    90    1
   93    90    91    1
   94    88    92    1
   95    92    93    1
   96    92    94    1
   97    94    95    1
   98    66    96    1
   99    92    96    1
  100    96    97    1
  101    96    98    1
  102    98    99    1
  103    85   100    1
  104    98   100    1
  105    98   101    1
  106   101   102    1
  107   101   103    1
  108   101   104    1
  109   104   105    1
  110   106   107    1
  111    12   108    1
  112   106   108    1
  113   106   109    1
  114   109   110    1
  115   109   111    1
  116   111   112    1
  117   109   113    1
  118   113   114    1
  119   113   115    1
  120   115   116    1
  121    87   117    1
  122   113   117    1
  123   117   118    1
  124   117   119    1
  125   119   120    1
  126   106   121    1
  127   119   121    1
  128   119   122    1
  129   122   123    1
  130   122   124    1
  131   122   125    1
  132   125   126    1
  133   127   128    1
  134   127   129    2
  135   127   130    1
  136   130   131    1
  137   130   132    2
  138   132   133    1
  139   132   134    1
  140   134   135    1
  141   134   136    1
  142   134   137    1
  143   137   138    1
  144   137   139    1
  145   137   140    1
  146   140   141    1
  147   140   142    1
  148   140   143    1
@<TRIPOS>SUBSTRUCTURE
       1 MOL1            1 RESIDUE      1      MOL     
       2 MOL1          143 RESIDUE      1      MOL     
@<SCITEGIC>MOL_PROPERTY
feprocess Rank
SciTegic.value.IntegerValue
168

@<SCITEGIC>MOL_PROPERTY
Conf_Id
SciTegic.value.IntegerValue
317

@<SCITEGIC>MOL_PROPERTY
Probability
SciTegic.value.DoubleValue
0.00

@<SCITEGIC>MOL_PROPERTY
G
SciTegic.value.DoubleValue
504.750

@<SCITEGIC>MOL_PROPERTY
E
SciTegic.value.DoubleValue
321.367

@<SCITEGIC>MOL_PROPERTY
-TS
SciTegic.value.DoubleValue
183.382

@<SCITEGIC>MOL_PROPERTY
U+W
SciTegic.value.DoubleValue
195.279

@<SCITEGIC>MOL_PROPERTY
U
SciTegic.value.DoubleValue
271.306

@<SCITEGIC>MOL_PROPERTY
W
SciTegic.value.DoubleValue
-76.027

@<SCITEGIC>MOL_PROPERTY
W(PB)
SciTegic.value.DoubleValue
-82.025

@<SCITEGIC>MOL_PROPERTY
W(SA)
SciTegic.value.DoubleValue
5.999

@<SCITEGIC>MOL_PROPERTY
Valence
SciTegic.value.DoubleValue
154.752

@<SCITEGIC>MOL_PROPERTY
Coulomb
SciTegic.value.DoubleValue
137.861

@<SCITEGIC>MOL_PROPERTY
VdW
SciTegic.value.DoubleValue
-21.307

@<SCITEGIC>MOL_PROPERTY
VdW6
SciTegic.value.DoubleValue
-180.123

@<SCITEGIC>MOL_PROPERTY
VdW12
SciTegic.value.DoubleValue
158.816

@<SCITEGIC>MOL_PROPERTY
Bond
SciTegic.value.DoubleValue
5.102

@<SCITEGIC>MOL_PROPERTY
Angle
SciTegic.value.DoubleValue
15.167

@<SCITEGIC>MOL_PROPERTY
Pdih
SciTegic.value.DoubleValue
134.418

@<SCITEGIC>MOL_PROPERTY
Idih
SciTegic.value.DoubleValue
0.065

@<SCITEGIC>MOL_PROPERTY
Tether
SciTegic.value.DoubleValue
0.000

@<TRIPOS>MOLECULE
CD_guest-s19_fast_vm2_rndm.mol2 : feprocess host+ligand conformer 169
         143         148           2
SMALL
USER_CHARGES
 
@<TRIPOS>ATOM
       1    C1      16.225209   15.218920   22.114694 C.3        1 MOL1         0.2972
       2    H1      15.181343   14.993709   22.369116 H          1 MOL1         0.0751
       3    O1      16.427978   16.637237   21.968209 O.3        1 MOL1        -0.3740
       4    C2      17.157625   14.704375   23.240128 C.3        1 MOL1         0.1003
       5    H2      16.999969   13.621800   23.330908 H          1 MOL1         0.0783
       6    O2      16.826674   15.338471   24.484452 O.3        1 MOL1        -0.5519
       7    H3      16.548428   16.255373   24.258939 H          1 MOL1         0.3769
       8    C3      18.646779   14.941738   22.894820 C.3        1 MOL1         0.1053
       9    H4      18.835459   16.022861   22.912171 H          1 MOL1         0.0783
      10    O3      19.471655   14.288413   23.865941 O.3        1 MOL1        -0.5519
      11    H5      19.134216   14.595052   24.736340 H          1 MOL1         0.3769
      12    C4      18.997073   14.416855   21.483315 C.3        1 MOL1         0.1018
      13    H6      19.072901   13.321853   21.522600 H          1 MOL1         0.0783
      14    C5      17.952617   14.846779   20.415931 C.3        1 MOL1         0.1043
      15    H7      18.075142   15.925758   20.264075 H          1 MOL1         0.0783
      16    O4      16.602711   14.578860   20.878007 O.3        1 MOL1        -0.3740
      17    C6      18.136821   14.158954   19.041470 C.3        1 MOL1         0.0138
      18    H8      19.039293   14.564314   18.564461 H          1 MOL1         0.0794
      19    H9      17.285323   14.421623   18.399504 H          1 MOL1         0.0794
      20    O5      18.246593   12.735545   19.162526 O.3        1 MOL1        -0.5486
      21    H10     18.265521   12.359369   18.255576 H          1 MOL1         0.3769
      22    C7      14.579245   20.214131   21.016140 C.3        1 MOL1         0.2972
      23    H11     13.907940   21.021548   20.696946 H          1 MOL1         0.0751
      24    O6      15.873024   20.721520   21.396206 O.3        1 MOL1        -0.3740
      25    C8      13.983292   19.491498   22.247351 C.3        1 MOL1         0.1003
      26    H12     13.011134   19.075161   21.953003 H          1 MOL1         0.0783
      27    O7      13.800498   20.425749   23.322713 O.3        1 MOL1        -0.5519
      28    H13     14.555466   21.060285   23.270581 H          1 MOL1         0.3769
      29    C9      14.892396   18.323577   22.699342 C.3        1 MOL1         0.1053
      30    H14     15.808046   18.759014   23.115962 H          1 MOL1         0.0783
      31    O8      14.224678   17.565412   23.712321 O.3        1 MOL1        -0.5519
      32    H15     13.887438   18.230894   24.351779 H          1 MOL1         0.3769
      33    C10     15.286353   17.397080   21.518769 C.3        1 MOL1         0.1018
      34    H16     14.427521   16.755136   21.283420 H          1 MOL1         0.0783
      35    C11     15.708708   18.185817   20.243878 C.3        1 MOL1         0.1043
      36    H17     16.689146   18.636722   20.441241 H          1 MOL1         0.0783
      37    O9      14.748786   19.237566   19.968615 O.3        1 MOL1        -0.3740
      38    C12     15.855106   17.332484   18.955253 C.3        1 MOL1         0.0138
      39    H18     16.899809   17.016239   18.858459 H          1 MOL1         0.0794
      40    H19     15.645144   17.972329   18.087628 H          1 MOL1         0.0794
      41    O10     14.997532   16.185728   18.927628 O.3        1 MOL1        -0.5486
      42    H20     15.368784   15.529475   19.563194 H          1 MOL1         0.3769
      43    C13     18.623083   23.757683   20.522573 C.3        1 MOL1         0.2972
      44    H21     19.096429   24.663527   20.122758 H          1 MOL1         0.0751
      45    O11     19.582560   22.910025   21.185280 O.3        1 MOL1        -0.3740
      46    C14     17.493251   24.121735   21.522608 C.3        1 MOL1         0.1003
      47    H22     16.771854   24.747341   20.981158 H          1 MOL1         0.0783
      48    O12     18.003125   24.861273   22.643617 O.3        1 MOL1        -0.5519
      49    H23     18.742064   24.330237   23.036756 H          1 MOL1         0.3769
      50    C15     16.748730   22.853142   22.006819 C.3        1 MOL1         0.1053
      51    H24     17.445066   22.263008   22.616755 H          1 MOL1         0.0783
      52    O13     15.616061   23.235901   22.795328 O.3        1 MOL1        -0.5519
      53    H25     15.954472   23.917631   23.416872 H          1 MOL1         0.3769
      54    C16     16.289048   21.973763   20.816741 C.3        1 MOL1         0.1018
      55    H26     15.462483   22.485264   20.306431 H          1 MOL1         0.0783
      56    C17     17.454010   21.722798   19.814071 C.3        1 MOL1         0.1043
      57    H27     18.213338   21.106196   20.313594 H          1 MOL1         0.0783
      58    O14     18.034125   22.998080   19.446692 O.3        1 MOL1        -0.3740
      59    C18     17.067426   20.996584   18.499936 C.3        1 MOL1         0.0138
      60    H28     17.177853   19.916796   18.649020 H          1 MOL1         0.0794
      61    H29     17.790031   21.278433   17.722436 H          1 MOL1         0.0794
      62    O15     15.737990   21.290816   18.057839 O.3        1 MOL1        -0.5486
      63    H30     15.136926   20.694433   18.560903 H          1 MOL1         0.3769
      64    C19     23.589844   22.752815   22.226229 C.3        1 MOL1         0.2972
      65    H31     24.634055   22.958346   22.494653 H          1 MOL1         0.0751
      66    O16     23.351197   21.345923   22.049806 O.3        1 MOL1        -0.3740
      67    C20     22.646485   23.262493   23.342742 C.3        1 MOL1         0.1003
      68    H32     22.782818   24.348973   23.420594 H          1 MOL1         0.0783
      69    O17     22.973795   22.654013   24.601868 O.3        1 MOL1        -0.5519
      70    H33     23.393758   21.781138   24.402906 H          1 MOL1         0.3769
      71    C21     21.168243   22.992110   22.979396 C.3        1 MOL1         0.1053
      72    H34     21.009336   21.906014   22.983157 H          1 MOL1         0.0783
      73    O18     20.322679   23.609742   23.955432 O.3        1 MOL1        -0.5519
      74    H35     20.702312   23.341325   24.821646 H          1 MOL1         0.3769
      75    C22     20.825996   23.532373   21.569014 C.3        1 MOL1         0.1018
      76    H36     20.734929   24.625123   21.631211 H          1 MOL1         0.0783
      77    C23     21.893515   23.147105   20.502725 C.3        1 MOL1         0.1043
      78    H37     21.791206   22.072503   20.304268 H          1 MOL1         0.0783
      79    O19     23.233626   23.415152   20.995290 O.3        1 MOL1        -0.3740
      80    C24     21.720614   23.880595   19.151081 C.3        1 MOL1         0.0138
      81    H38     20.828249   23.483128   18.648907 H          1 MOL1         0.0794
      82    H39     22.583738   23.647322   18.513181 H          1 MOL1         0.0794
      83    O20     21.594209   25.298142   19.318712 O.3        1 MOL1        -0.5486
      84    H40     21.578229   25.703809   18.424481 H          1 MOL1         0.3769
      85    C25     25.192605   17.668378   21.538289 C.3        1 MOL1         0.2972
      86    H41     25.899178   16.845353   21.371251 H          1 MOL1         0.0751
      87    O21     23.838209   17.182623   21.640211 O.3        1 MOL1        -0.3740
      88    C26     25.553288   18.409966   22.852426 C.3        1 MOL1         0.1003
      89    H42     26.560116   18.828170   22.727196 H          1 MOL1         0.0783
      90    O22     25.562383   17.503639   23.968010 O.3        1 MOL1        -0.5519
      91    H43     24.625641   17.223336   24.151618 H          1 MOL1         0.3769
      92    C27     24.573901   19.584049   23.083442 C.3        1 MOL1         0.1053
      93    H44     23.576120   19.156133   23.181159 H          1 MOL1         0.0783
      94    O23     24.907442   20.322938   24.265617 O.3        1 MOL1        -0.5519
      95    H45     24.638360   19.745202   25.026500 H          1 MOL1         0.3769
      96    C28     24.512164   20.517997   21.856701 C.3        1 MOL1         0.1018
      97    H46     25.443094   21.096226   21.792195 H          1 MOL1         0.0783
      98    C29     24.285357   19.717197   20.546360 C.3        1 MOL1         0.1043
      99    H47     23.272836   19.297832   20.598737 H          1 MOL1         0.0783
     100    O24     25.245150   18.629479   20.455890 O.3        1 MOL1        -0.3740
     101    C30     24.352275   20.565939   19.249207 C.3        1 MOL1         0.0138
     102    H48     23.344600   20.939175   19.026871 H          1 MOL1         0.0794
     103    H49     24.639508   19.911985   18.414974 H          1 MOL1         0.0794
     104    O25     25.257425   21.671950   19.340603 O.3        1 MOL1        -0.5486
     105    H50     24.803609   22.371181   19.865459 H          1 MOL1         0.3769
     106    C31     21.200494   14.215249   20.426892 C.3        1 MOL1         0.2972
     107    H51     20.712061   13.356087   19.950153 H          1 MOL1         0.0751
     108    O26     20.251545   15.035047   21.135466 O.3        1 MOL1        -0.3740
     109    C32     22.300223   13.743579   21.412284 C.3        1 MOL1         0.1003
     110    H52     23.003862   13.130596   20.834290 H          1 MOL1         0.0783
     111    O27     21.740624   12.943961   22.467238 O.3        1 MOL1        -0.5519
     112    H53     21.042900   13.490962   22.909959 H          1 MOL1         0.3769
     113    C33     23.093272   14.935983   22.005647 C.3        1 MOL1         0.1053
     114    H54     22.445981   15.450158   22.728605 H          1 MOL1         0.0783
     115    O28     24.253377   14.425696   22.671047 O.3        1 MOL1        -0.5519
     116    H55     23.913585   13.810381   23.355681 H          1 MOL1         0.3769
     117    C34     23.526831   15.967494   20.928206 C.3        1 MOL1         0.1018
     118    H56     24.399362   15.564982   20.397642 H          1 MOL1         0.0783
     119    C35     22.396264   16.281806   19.904833 C.3        1 MOL1         0.1043
     120    H57     21.620122   16.863541   20.419444 H          1 MOL1         0.0783
     121    O29     21.831239   15.038504   19.426385 O.3        1 MOL1        -0.3740
     122    C36     22.826613   17.104809   18.661668 C.3        1 MOL1         0.0138
     123    H58     22.654388   18.167316   18.865713 H          1 MOL1         0.0794
     124    H59     22.165539   16.841114   17.825253 H          1 MOL1         0.0794
     125    O30     24.192358   16.898748   18.283068 O.3        1 MOL1        -0.5486
     126    H60     24.747241   17.388555   18.934157 H          1 MOL1         0.3769
     127    C1      22.577542   18.118468   25.304830 C.2        1 MOL1         0.6173
     128    O1      22.929540   16.989506   25.017611 O.co2      1 MOL1        -0.6755
     129    O2      23.187599   18.815105   26.093354 O.co2      1 MOL1        -0.6755
     130    C2      21.528445   18.784022   24.484897 C.2        1 MOL1        -0.1504
     131    H1      21.352379   19.834247   24.703848 H          1 MOL1         0.0814
     132    C3      20.880925   18.180076   23.462988 C.2        1 MOL1        -0.1394
     133    H2      21.073032   17.135421   23.226601 H          1 MOL1         0.0817
     134    C4      19.925191   18.887541   22.527570 C.3        1 MOL1        -0.1849
     135    H3      19.832294   18.294467   21.608416 H          1 MOL1         0.0736
     136    H4      20.340602   19.855701   22.220817 H          1 MOL1         0.0736
     137    C5      18.517219   19.087008   23.122576 C.3        1 MOL1        -0.1866
     138    H5      17.859279   19.426748   22.317143 H          1 MOL1         0.0738
     139    H6      18.121280   18.126581   23.474225 H          1 MOL1         0.0738
     140    C6      18.461610   20.116314   24.269875 C.3        1 MOL1        -0.2879
     141    H7      18.925193   21.064514   23.972482 H          1 MOL1         0.0750
     142    H8      17.420937   20.321086   24.551683 H          1 MOL1         0.0750
     143    H9      18.980873   19.743378   25.160986 H          1 MOL1         0.0750
@<TRIPOS>BOND
    1     1     2    1
    2     1     3    1
    3     1     4    1
    4     4     5    1
    5     4     6    1
    6     6     7    1
    7     4     8    1
    8     8     9    1
    9     8    10    1
   10    10    11    1
   11     8    12    1
   12    12    13    1
   13    12    14    1
   14    14    15    1
   15     1    16    1
   16    14    16    1
   17    14    17    1
   18    17    18    1
   19    17    19    1
   20    17    20    1
   21    20    21    1
   22    22    23    1
   23    22    24    1
   24    22    25    1
   25    25    26    1
   26    25    27    1
   27    27    28    1
   28    25    29    1
   29    29    30    1
   30    29    31    1
   31    31    32    1
   32     3    33    1
   33    29    33    1
   34    33    34    1
   35    33    35    1
   36    35    36    1
   37    22    37    1
   38    35    37    1
   39    35    38    1
   40    38    39    1
   41    38    40    1
   42    38    41    1
   43    41    42    1
   44    43    44    1
   45    43    45    1
   46    43    46    1
   47    46    47    1
   48    46    48    1
   49    48    49    1
   50    46    50    1
   51    50    51    1
   52    50    52    1
   53    52    53    1
   54    24    54    1
   55    50    54    1
   56    54    55    1
   57    54    56    1
   58    56    57    1
   59    43    58    1
   60    56    58    1
   61    56    59    1
   62    59    60    1
   63    59    61    1
   64    59    62    1
   65    62    63    1
   66    64    65    1
   67    64    66    1
   68    64    67    1
   69    67    68    1
   70    67    69    1
   71    69    70    1
   72    67    71    1
   73    71    72    1
   74    71    73    1
   75    73    74    1
   76    45    75    1
   77    71    75    1
   78    75    76    1
   79    75    77    1
   80    77    78    1
   81    64    79    1
   82    77    79    1
   83    77    80    1
   84    80    81    1
   85    80    82    1
   86    80    83    1
   87    83    84    1
   88    85    86    1
   89    85    87    1
   90    85    88    1
   91    88    89    1
   92    88    90    1
   93    90    91    1
   94    88    92    1
   95    92    93    1
   96    92    94    1
   97    94    95    1
   98    66    96    1
   99    92    96    1
  100    96    97    1
  101    96    98    1
  102    98    99    1
  103    85   100    1
  104    98   100    1
  105    98   101    1
  106   101   102    1
  107   101   103    1
  108   101   104    1
  109   104   105    1
  110   106   107    1
  111    12   108    1
  112   106   108    1
  113   106   109    1
  114   109   110    1
  115   109   111    1
  116   111   112    1
  117   109   113    1
  118   113   114    1
  119   113   115    1
  120   115   116    1
  121    87   117    1
  122   113   117    1
  123   117   118    1
  124   117   119    1
  125   119   120    1
  126   106   121    1
  127   119   121    1
  128   119   122    1
  129   122   123    1
  130   122   124    1
  131   122   125    1
  132   125   126    1
  133   127   128    1
  134   127   129    2
  135   127   130    1
  136   130   131    1
  137   130   132    2
  138   132   133    1
  139   132   134    1
  140   134   135    1
  141   134   136    1
  142   134   137    1
  143   137   138    1
  144   137   139    1
  145   137   140    1
  146   140   141    1
  147   140   142    1
  148   140   143    1
@<TRIPOS>SUBSTRUCTURE
       1 MOL1            1 RESIDUE      1      MOL     
       2 MOL1          143 RESIDUE      1      MOL     
@<SCITEGIC>MOL_PROPERTY
feprocess Rank
SciTegic.value.IntegerValue
169

@<SCITEGIC>MOL_PROPERTY
Conf_Id
SciTegic.value.IntegerValue
586

@<SCITEGIC>MOL_PROPERTY
Probability
SciTegic.value.DoubleValue
0.00

@<SCITEGIC>MOL_PROPERTY
G
SciTegic.value.DoubleValue
504.866

@<SCITEGIC>MOL_PROPERTY
E
SciTegic.value.DoubleValue
322.195

@<SCITEGIC>MOL_PROPERTY
-TS
SciTegic.value.DoubleValue
182.671

@<SCITEGIC>MOL_PROPERTY
U+W
SciTegic.value.DoubleValue
196.107

@<SCITEGIC>MOL_PROPERTY
U
SciTegic.value.DoubleValue
275.352

@<SCITEGIC>MOL_PROPERTY
W
SciTegic.value.DoubleValue
-79.246

@<SCITEGIC>MOL_PROPERTY
W(PB)
SciTegic.value.DoubleValue
-85.228

@<SCITEGIC>MOL_PROPERTY
W(SA)
SciTegic.value.DoubleValue
5.983

@<SCITEGIC>MOL_PROPERTY
Valence
SciTegic.value.DoubleValue
151.748

@<SCITEGIC>MOL_PROPERTY
Coulomb
SciTegic.value.DoubleValue
148.921

@<SCITEGIC>MOL_PROPERTY
VdW
SciTegic.value.DoubleValue
-25.317

@<SCITEGIC>MOL_PROPERTY
VdW6
SciTegic.value.DoubleValue
-180.542

@<SCITEGIC>MOL_PROPERTY
VdW12
SciTegic.value.DoubleValue
155.224

@<SCITEGIC>MOL_PROPERTY
Bond
SciTegic.value.DoubleValue
4.865

@<SCITEGIC>MOL_PROPERTY
Angle
SciTegic.value.DoubleValue
14.724

@<SCITEGIC>MOL_PROPERTY
Pdih
SciTegic.value.DoubleValue
132.036

@<SCITEGIC>MOL_PROPERTY
Idih
SciTegic.value.DoubleValue
0.123

@<SCITEGIC>MOL_PROPERTY
Tether
SciTegic.value.DoubleValue
0.000

@<TRIPOS>MOLECULE
CD_guest-s19_fast_vm2_rndm.mol2 : feprocess host+ligand conformer 170
         143         148           2
SMALL
USER_CHARGES
 
@<TRIPOS>ATOM
       1    C1      15.998560   15.341371   20.613142 C.3        1 MOL1         0.2972
       2    H1      15.055946   15.097790   20.106335 H          1 MOL1         0.0751
       3    O1      15.777544   16.291744   21.671669 O.3        1 MOL1        -0.3740
       4    C2      16.601311   14.056735   21.247898 C.3        1 MOL1         0.1003
       5    H2      16.686612   13.306794   20.450734 H          1 MOL1         0.0783
       6    O2      15.735383   13.557518   22.277550 O.3        1 MOL1        -0.5519
       7    H3      15.477912   14.341857   22.814421 H          1 MOL1         0.3769
       8    C3      18.018858   14.303665   21.823687 C.3        1 MOL1         0.1053
       9    H4      17.932188   14.973963   22.690398 H          1 MOL1         0.0783
      10    O3      18.596442   13.055921   22.223987 O.3        1 MOL1        -0.5519
      11    H5      17.889293   12.594883   22.728068 H          1 MOL1         0.3769
      12    C4      18.910929   14.992129   20.766787 C.3        1 MOL1         0.1018
      13    H6      19.044651   14.309888   19.916286 H          1 MOL1         0.0783
      14    C5      18.234832   16.283912   20.249647 C.3        1 MOL1         0.1043
      15    H7      18.080442   16.965790   21.094059 H          1 MOL1         0.0783
      16    O4      16.956877   15.906350   19.684959 O.3        1 MOL1        -0.3740
      17    C6      19.048996   17.050140   19.176639 C.3        1 MOL1         0.0138
      18    H8      19.777300   17.691163   19.688083 H          1 MOL1         0.0794
      19    H9      18.369109   17.714173   18.626879 H          1 MOL1         0.0794
      20    O5      19.731448   16.180537   18.265437 O.3        1 MOL1        -0.5486
      21    H10     20.447471   15.728454   18.769261 H          1 MOL1         0.3769
      22    C7      14.434995   20.155914   21.715824 C.3        1 MOL1         0.2972
      23    H11     13.912952   21.121447   21.718207 H          1 MOL1         0.0751
      24    O6      15.866299   20.321128   21.789222 O.3        1 MOL1        -0.3740
      25    C8      13.947971   19.309729   22.908806 C.3        1 MOL1         0.1003
      26    H12     12.873535   19.130799   22.771548 H          1 MOL1         0.0783
      27    O7      14.160183   20.014212   24.142848 O.3        1 MOL1        -0.5519
      28    H13     14.906669   20.646025   23.990016 H          1 MOL1         0.3769
      29    C9      14.659976   17.942084   22.935380 C.3        1 MOL1         0.1053
      30    H14     15.702087   18.133649   23.210632 H          1 MOL1         0.0783
      31    O8      14.048358   17.120197   23.935065 O.3        1 MOL1        -0.5519
      32    H15     13.998302   17.688447   24.735227 H          1 MOL1         0.3769
      33    C10     14.658689   17.209563   21.563393 C.3        1 MOL1         0.1018
      34    H16     13.714775   16.657722   21.471054 H          1 MOL1         0.0783
      35    C11     14.834636   18.166489   20.331745 C.3        1 MOL1         0.1043
      36    H17     15.905900   18.372203   20.223371 H          1 MOL1         0.0783
      37    O9      14.130862   19.421312   20.520909 O.3        1 MOL1        -0.3740
      38    C12     14.314216   17.604916   18.981149 C.3        1 MOL1         0.0138
      39    H18     15.019036   16.866844   18.584083 H          1 MOL1         0.0794
      40    H19     14.286535   18.427672   18.253766 H          1 MOL1         0.0794
      41    O10     13.013623   17.017094   19.103929 O.3        1 MOL1        -0.5486
      42    H20     12.709963   16.772939   18.202313 H          1 MOL1         0.3769
      43    C13     18.608886   23.484914   21.185017 C.3        1 MOL1         0.2972
      44    H21     18.969223   24.481315   20.898779 H          1 MOL1         0.0751
      45    O11     19.709088   22.637605   21.566505 O.3        1 MOL1        -0.3740
      46    C14     17.596146   23.626893   22.356668 C.3        1 MOL1         0.1003
      47    H22     16.801477   24.293790   21.998158 H          1 MOL1         0.0783
      48    O12     18.193190   24.227174   23.515382 O.3        1 MOL1        -0.5519
      49    H23     18.974766   23.669141   23.786605 H          1 MOL1         0.3769
      50    C15     16.931508   22.278436   22.716089 C.3        1 MOL1         0.1053
      51    H24     17.696367   21.606784   23.127013 H          1 MOL1         0.0783
      52    O13     15.897987   22.496906   23.682879 O.3        1 MOL1        -0.5519
      53    H25     16.303408   23.090884   24.353935 H          1 MOL1         0.3769
      54    C16     16.335952   21.638766   21.442287 C.3        1 MOL1         0.1018
      55    H26     15.522403   22.280510   21.078345 H          1 MOL1         0.0783
      56    C17     17.405716   21.523408   20.326678 C.3        1 MOL1         0.1043
      57    H27     18.199614   20.862514   20.693150 H          1 MOL1         0.0783
      58    O14     17.950604   22.843866   20.064957 O.3        1 MOL1        -0.3740
      59    C18     16.884999   20.935734   18.988175 C.3        1 MOL1         0.0138
      60    H28     16.958833   19.842756   19.033170 H          1 MOL1         0.0794
      61    H29     17.549088   21.261542   18.177046 H          1 MOL1         0.0794
      62    O15     15.536484   21.316930   18.691716 O.3        1 MOL1        -0.5486
      63    H30     14.947640   20.780644   19.272328 H          1 MOL1         0.3769
      64    C19     23.878233   22.568616   20.821583 C.3        1 MOL1         0.2972
      65    H31     24.838349   22.732168   20.316908 H          1 MOL1         0.0751
      66    O16     24.053853   21.768481   22.005169 O.3        1 MOL1        -0.3740
      67    C20     23.274868   23.938536   21.231037 C.3        1 MOL1         0.1003
      68    H32     23.237867   24.554693   20.323202 H          1 MOL1         0.0783
      69    O17     24.116592   24.579923   22.200405 O.3        1 MOL1        -0.5519
      70    H33     24.294497   23.901408   22.890858 H          1 MOL1         0.3769
      71    C21     21.828683   23.823614   21.778695 C.3        1 MOL1         0.1053
      72    H34     21.870578   23.369946   22.777687 H          1 MOL1         0.0783
      73    O18     21.274049   25.141411   21.853586 O.3        1 MOL1        -0.5519
      74    H35     21.894536   25.655618   22.413757 H          1 MOL1         0.3769
      75    C22     20.946504   22.923022   20.876968 C.3        1 MOL1         0.1018
      76    H36     20.762962   23.448457   19.930288 H          1 MOL1         0.0783
      77    C23     21.657749   21.583601   20.561871 C.3        1 MOL1         0.1043
      78    H37     21.808129   21.033964   21.499914 H          1 MOL1         0.0783
      79    O19     22.937269   21.889429   19.958549 O.3        1 MOL1        -0.3740
      80    C24     20.875140   20.654007   19.603082 C.3        1 MOL1         0.0138
      81    H38     20.136061   20.096810   20.190672 H          1 MOL1         0.0794
      82    H39     21.570063   19.916861   19.182777 H          1 MOL1         0.0794
      83    O20     20.221900   21.366940   18.546945 O.3        1 MOL1        -0.5486
      84    H40     19.563421   21.970461   18.961306 H          1 MOL1         0.3769
      85    C25     25.269246   17.795020   22.219061 C.3        1 MOL1         0.2972
      86    H41     25.807479   16.842145   22.305933 H          1 MOL1         0.0751
      87    O21     23.855433   17.589857   22.045236 O.3        1 MOL1        -0.3740
      88    C26     25.511520   18.639176   23.487146 C.3        1 MOL1         0.1003
      89    H42     26.592850   18.812264   23.564271 H          1 MOL1         0.0783
      90    O22     25.059605   17.929280   24.652046 O.3        1 MOL1        -0.5519
      91    H43     24.449087   17.219066   24.335544 H          1 MOL1         0.3769
      92    C27     24.815905   20.014291   23.387274 C.3        1 MOL1         0.1053
      93    H44     23.733652   19.840808   23.451978 H          1 MOL1         0.0783
      94    O23     25.243584   20.818717   24.491196 O.3        1 MOL1        -0.5519
      95    H45     25.095772   20.262526   25.286962 H          1 MOL1         0.3769
      96    C28     25.093898   20.752448   22.047276 C.3        1 MOL1         0.1018
      97    H46     26.082746   21.223847   22.108798 H          1 MOL1         0.0783
      98    C29     25.055273   19.790554   20.805682 C.3        1 MOL1         0.1043
      99    H47     24.004233   19.575496   20.582498 H          1 MOL1         0.0783
     100    O24     25.744952   18.546164   21.091797 O.3        1 MOL1        -0.3740
     101    C30     25.722311   20.329206   19.510230 C.3        1 MOL1         0.0138
     102    H48     25.033845   21.000842   18.985464 H          1 MOL1         0.0794
     103    H49     25.895420   19.481733   18.832991 H          1 MOL1         0.0794
     104    O25     26.958742   21.002505   19.773772 O.3        1 MOL1        -0.5486
     105    H50     27.369621   21.222377   18.909158 H          1 MOL1         0.3769
     106    C31     21.261835   14.467922   20.993739 C.3        1 MOL1         0.2972
     107    H51     20.894845   13.505575   20.613484 H          1 MOL1         0.0751
     108    O26     20.170122   15.325406   21.380786 O.3        1 MOL1        -0.3740
     109    C32     22.171112   14.216302   22.224736 C.3        1 MOL1         0.1003
     110    H52     22.975809   13.543083   21.901789 H          1 MOL1         0.0783
     111    O27     21.428992   13.589130   23.282712 O.3        1 MOL1        -0.5519
     112    H53     20.477096   13.609113   23.014351 H          1 MOL1         0.3769
     113    C33     22.820559   15.526459   22.724989 C.3        1 MOL1         0.1053
     114    H54     22.027820   16.158280   23.140239 H          1 MOL1         0.0783
     115    O28     23.784896   15.230820   23.740513 O.3        1 MOL1        -0.5519
     116    H55     23.331472   14.597804   24.341200 H          1 MOL1         0.3769
     117    C34     23.491991   16.285431   21.556823 C.3        1 MOL1         0.1018
     118    H56     24.366966   15.711679   21.223230 H          1 MOL1         0.0783
     119    C35     22.526223   16.462848   20.356197 C.3        1 MOL1         0.1043
     120    H57     21.697167   17.104447   20.678906 H          1 MOL1         0.0783
     121    O29     22.014719   15.161340   19.973864 O.3        1 MOL1        -0.3740
     122    C36     23.164164   17.123463   19.105988 C.3        1 MOL1         0.0138
     123    H58     23.070377   18.211179   19.198572 H          1 MOL1         0.0794
     124    H59     22.584550   16.832479   18.219681 H          1 MOL1         0.0794
     125    O30     24.542529   16.776790   18.926027 O.3        1 MOL1        -0.5486
     126    H60     25.056336   17.249565   19.621427 H          1 MOL1         0.3769
     127    C1      21.129833   22.074478   25.185555 C.2        1 MOL1         0.6173
     128    O1      20.250734   22.770545   24.711993 O.co2      1 MOL1        -0.6755
     129    O2      21.891476   22.460652   26.050878 O.co2      1 MOL1        -0.6755
     130    C2      21.295094   20.678719   24.698002 C.2        1 MOL1        -0.1504
     131    H1      22.083922   20.098987   25.170729 H          1 MOL1         0.0814
     132    C3      20.521548   20.128787   23.735919 C.2        1 MOL1        -0.1394
     133    H2      19.726958   20.703854   23.268678 H          1 MOL1         0.0817
     134    C4      20.660175   18.706185   23.246127 C.3        1 MOL1        -0.1849
     135    H3      21.703411   18.385993   23.346494 H          1 MOL1         0.0736
     136    H4      20.417009   18.654040   22.178026 H          1 MOL1         0.0736
     137    C5      19.749091   17.736606   24.028651 C.3        1 MOL1        -0.1866
     138    H5      19.878491   16.719000   23.639941 H          1 MOL1         0.0738
     139    H6      20.055839   17.711175   25.083141 H          1 MOL1         0.0738
     140    C6      18.259830   18.123499   23.934986 C.3        1 MOL1        -0.2879
     141    H7      17.954350   18.258471   22.891323 H          1 MOL1         0.0750
     142    H8      17.630630   17.343042   24.381656 H          1 MOL1         0.0750
     143    H9      18.060821   19.062290   24.468042 H          1 MOL1         0.0750
@<TRIPOS>BOND
    1     1     2    1
    2     1     3    1
    3     1     4    1
    4     4     5    1
    5     4     6    1
    6     6     7    1
    7     4     8    1
    8     8     9    1
    9     8    10    1
   10    10    11    1
   11     8    12    1
   12    12    13    1
   13    12    14    1
   14    14    15    1
   15     1    16    1
   16    14    16    1
   17    14    17    1
   18    17    18    1
   19    17    19    1
   20    17    20    1
   21    20    21    1
   22    22    23    1
   23    22    24    1
   24    22    25    1
   25    25    26    1
   26    25    27    1
   27    27    28    1
   28    25    29    1
   29    29    30    1
   30    29    31    1
   31    31    32    1
   32     3    33    1
   33    29    33    1
   34    33    34    1
   35    33    35    1
   36    35    36    1
   37    22    37    1
   38    35    37    1
   39    35    38    1
   40    38    39    1
   41    38    40    1
   42    38    41    1
   43    41    42    1
   44    43    44    1
   45    43    45    1
   46    43    46    1
   47    46    47    1
   48    46    48    1
   49    48    49    1
   50    46    50    1
   51    50    51    1
   52    50    52    1
   53    52    53    1
   54    24    54    1
   55    50    54    1
   56    54    55    1
   57    54    56    1
   58    56    57    1
   59    43    58    1
   60    56    58    1
   61    56    59    1
   62    59    60    1
   63    59    61    1
   64    59    62    1
   65    62    63    1
   66    64    65    1
   67    64    66    1
   68    64    67    1
   69    67    68    1
   70    67    69    1
   71    69    70    1
   72    67    71    1
   73    71    72    1
   74    71    73    1
   75    73    74    1
   76    45    75    1
   77    71    75    1
   78    75    76    1
   79    75    77    1
   80    77    78    1
   81    64    79    1
   82    77    79    1
   83    77    80    1
   84    80    81    1
   85    80    82    1
   86    80    83    1
   87    83    84    1
   88    85    86    1
   89    85    87    1
   90    85    88    1
   91    88    89    1
   92    88    90    1
   93    90    91    1
   94    88    92    1
   95    92    93    1
   96    92    94    1
   97    94    95    1
   98    66    96    1
   99    92    96    1
  100    96    97    1
  101    96    98    1
  102    98    99    1
  103    85   100    1
  104    98   100    1
  105    98   101    1
  106   101   102    1
  107   101   103    1
  108   101   104    1
  109   104   105    1
  110   106   107    1
  111    12   108    1
  112   106   108    1
  113   106   109    1
  114   109   110    1
  115   109   111    1
  116   111   112    1
  117   109   113    1
  118   113   114    1
  119   113   115    1
  120   115   116    1
  121    87   117    1
  122   113   117    1
  123   117   118    1
  124   117   119    1
  125   119   120    1
  126   106   121    1
  127   119   121    1
  128   119   122    1
  129   122   123    1
  130   122   124    1
  131   122   125    1
  132   125   126    1
  133   127   128    1
  134   127   129    2
  135   127   130    1
  136   130   131    1
  137   130   132    2
  138   132   133    1
  139   132   134    1
  140   134   135    1
  141   134   136    1
  142   134   137    1
  143   137   138    1
  144   137   139    1
  145   137   140    1
  146   140   141    1
  147   140   142    1
  148   140   143    1
@<TRIPOS>SUBSTRUCTURE
       1 MOL1            1 RESIDUE      1      MOL     
       2 MOL1          143 RESIDUE      1      MOL     
@<SCITEGIC>MOL_PROPERTY
feprocess Rank
SciTegic.value.IntegerValue
170

@<SCITEGIC>MOL_PROPERTY
Conf_Id
SciTegic.value.IntegerValue
599

@<SCITEGIC>MOL_PROPERTY
Probability
SciTegic.value.DoubleValue
0.00

@<SCITEGIC>MOL_PROPERTY
G
SciTegic.value.DoubleValue
504.942

@<SCITEGIC>MOL_PROPERTY
E
SciTegic.value.DoubleValue
322.887

@<SCITEGIC>MOL_PROPERTY
-TS
SciTegic.value.DoubleValue
182.055

@<SCITEGIC>MOL_PROPERTY
U+W
SciTegic.value.DoubleValue
196.798

@<SCITEGIC>MOL_PROPERTY
U
SciTegic.value.DoubleValue
278.916

@<SCITEGIC>MOL_PROPERTY
W
SciTegic.value.DoubleValue
-82.118

@<SCITEGIC>MOL_PROPERTY
W(PB)
SciTegic.value.DoubleValue
-88.057

@<SCITEGIC>MOL_PROPERTY
W(SA)
SciTegic.value.DoubleValue
5.940

@<SCITEGIC>MOL_PROPERTY
Valence
SciTegic.value.DoubleValue
148.552

@<SCITEGIC>MOL_PROPERTY
Coulomb
SciTegic.value.DoubleValue
156.117

@<SCITEGIC>MOL_PROPERTY
VdW
SciTegic.value.DoubleValue
-25.753

@<SCITEGIC>MOL_PROPERTY
VdW6
SciTegic.value.DoubleValue
-180.111

@<SCITEGIC>MOL_PROPERTY
VdW12
SciTegic.value.DoubleValue
154.359

@<SCITEGIC>MOL_PROPERTY
Bond
SciTegic.value.DoubleValue
5.183

@<SCITEGIC>MOL_PROPERTY
Angle
SciTegic.value.DoubleValue
15.804

@<SCITEGIC>MOL_PROPERTY
Pdih
SciTegic.value.DoubleValue
127.564

@<SCITEGIC>MOL_PROPERTY
Idih
SciTegic.value.DoubleValue
0.001

@<SCITEGIC>MOL_PROPERTY
Tether
SciTegic.value.DoubleValue
0.000

@<TRIPOS>MOLECULE
CD_guest-s19_fast_vm2_rndm.mol2 : feprocess host+ligand conformer 171
         143         148           2
SMALL
USER_CHARGES
 
@<TRIPOS>ATOM
       1    C1      16.104514   15.108902   21.869591 C.3        1 MOL1         0.2972
       2    H1      15.035663   14.896640   22.001726 H          1 MOL1         0.0751
       3    O1      16.363509   16.524480   21.842423 O.3        1 MOL1        -0.3740
       4    C2      16.909732   14.501406   23.043335 C.3        1 MOL1         0.1003
       5    H2      16.755530   13.414621   23.029153 H          1 MOL1         0.0783
       6    O2      16.443018   15.034223   24.292747 O.3        1 MOL1        -0.5519
       7    H3      16.108585   15.943092   24.102773 H          1 MOL1         0.3769
       8    C3      18.420922   14.776397   22.866900 C.3        1 MOL1         0.1053
       9    H4      18.576047   15.859220   22.959214 H          1 MOL1         0.0783
      10    O3      19.158129   14.086767   23.882704 O.3        1 MOL1        -0.5519
      11    H5      18.700326   14.309514   24.723327 H          1 MOL1         0.3769
      12    C4      18.917957   14.331506   21.470557 C.3        1 MOL1         0.1018
      13    H6      18.987055   13.235454   21.461675 H          1 MOL1         0.0783
      14    C5      17.986141   14.819776   20.324004 C.3        1 MOL1         0.1043
      15    H7      18.124820   15.903944   20.229671 H          1 MOL1         0.0783
      16    O4      16.595560   14.541171   20.637564 O.3        1 MOL1        -0.3740
      17    C6      18.301805   14.191462   18.945249 C.3        1 MOL1         0.0138
      18    H8      19.246644   14.611914   18.575719 H          1 MOL1         0.0794
      19    H9      17.516323   14.487582   18.236959 H          1 MOL1         0.0794
      20    O5      18.397156   12.763309   19.013366 O.3        1 MOL1        -0.5486
      21    H10     18.513807   12.428394   18.097605 H          1 MOL1         0.3769
      22    C7      14.624555   20.232941   21.152976 C.3        1 MOL1         0.2972
      23    H11     13.939388   21.050661   20.895943 H          1 MOL1         0.0751
      24    O6      15.934392   20.742956   21.477679 O.3        1 MOL1        -0.3740
      25    C8      14.049527   19.440726   22.359292 C.3        1 MOL1         0.1003
      26    H12     13.065867   19.064634   22.050123 H          1 MOL1         0.0783
      27    O7      13.880741   20.284466   23.507329 O.3        1 MOL1        -0.5519
      28    H13     14.796023   20.522351   23.826311 H          1 MOL1         0.3769
      29    C9      14.927971   18.219284   22.717401 C.3        1 MOL1         0.1053
      30    H14     15.868820   18.590599   23.136203 H          1 MOL1         0.0783
      31    O8      14.261972   17.412321   23.694272 O.3        1 MOL1        -0.5519
      32    H15     13.990313   18.040995   24.399497 H          1 MOL1         0.3769
      33    C10     15.256643   17.365904   21.469742 C.3        1 MOL1         0.1018
      34    H16     14.364648   16.787750   21.195138 H          1 MOL1         0.0783
      35    C11     15.707845   18.230039   20.260920 C.3        1 MOL1         0.1043
      36    H17     16.690067   18.652112   20.509173 H          1 MOL1         0.0783
      37    O9      14.761573   19.310292   20.048809 O.3        1 MOL1        -0.3740
      38    C12     15.869974   17.451579   18.927216 C.3        1 MOL1         0.0138
      39    H18     16.908198   17.107961   18.847093 H          1 MOL1         0.0794
      40    H19     15.705051   18.146715   18.093165 H          1 MOL1         0.0794
      41    O10     14.985028   16.331972   18.807359 O.3        1 MOL1        -0.5486
      42    H20     15.348594   15.614490   19.377322 H          1 MOL1         0.3769
      43    C13     18.662769   23.782755   20.546044 C.3        1 MOL1         0.2972
      44    H21     19.150233   24.669434   20.121224 H          1 MOL1         0.0751
      45    O11     19.591975   22.978525   21.295343 O.3        1 MOL1        -0.3740
      46    C14     17.496126   24.194979   21.478026 C.3        1 MOL1         0.1003
      47    H22     16.815348   24.817157   20.882788 H          1 MOL1         0.0783
      48    O12     17.979891   24.963069   22.592673 O.3        1 MOL1        -0.5519
      49    H23     18.710383   24.442211   23.013811 H          1 MOL1         0.3769
      50    C15     16.693600   22.966420   21.978433 C.3        1 MOL1         0.1053
      51    H24     17.316258   22.427753   22.703749 H          1 MOL1         0.0783
      52    O13     15.497223   23.435098   22.609352 O.3        1 MOL1        -0.5519
      53    H25     15.796674   24.039323   23.322083 H          1 MOL1         0.3769
      54    C16     16.330487   21.978484   20.836215 C.3        1 MOL1         0.1018
      55    H26     15.511028   22.416971   20.252274 H          1 MOL1         0.0783
      56    C17     17.544891   21.704089   19.899222 C.3        1 MOL1         0.1043
      57    H27     18.289149   21.126071   20.461513 H          1 MOL1         0.0783
      58    O14     18.120634   22.967123   19.490096 O.3        1 MOL1        -0.3740
      59    C18     17.236715   20.912580   18.602525 C.3        1 MOL1         0.0138
      60    H28     17.373279   19.844724   18.801281 H          1 MOL1         0.0794
      61    H29     17.985647   21.182390   17.845934 H          1 MOL1         0.0794
      62    O15     15.922093   21.151406   18.088173 O.3        1 MOL1        -0.5486
      63    H30     15.300529   20.627012   18.645085 H          1 MOL1         0.3769
      64    C19     23.617800   22.778191   22.278140 C.3        1 MOL1         0.2972
      65    H31     24.664803   23.000034   22.522094 H          1 MOL1         0.0751
      66    O16     23.393823   21.357378   22.195180 O.3        1 MOL1        -0.3740
      67    C20     22.695487   23.351837   23.382265 C.3        1 MOL1         0.1003
      68    H32     22.867349   24.435008   23.429662 H          1 MOL1         0.0783
      69    O17     23.020121   22.761318   24.649877 O.3        1 MOL1        -0.5519
      70    H33     23.325502   21.845030   24.455583 H          1 MOL1         0.3769
      71    C21     21.204271   23.118382   23.046023 C.3        1 MOL1         0.1053
      72    H34     21.009599   22.040562   23.103879 H          1 MOL1         0.0783
      73    O18     20.384388   23.816913   23.989669 O.3        1 MOL1        -0.5519
      74    H35     20.713006   23.541045   24.873329 H          1 MOL1         0.3769
      75    C22     20.857461   23.590014   21.615429 C.3        1 MOL1         0.1018
      76    H36     20.797317   24.686653   21.613600 H          1 MOL1         0.0783
      77    C23     21.894740   23.104609   20.564726 C.3        1 MOL1         0.1043
      78    H37     21.759165   22.022027   20.452183 H          1 MOL1         0.0783
      79    O19     23.247990   23.372510   21.016680 O.3        1 MOL1        -0.3740
      80    C24     21.719659   23.744511   19.166119 C.3        1 MOL1         0.0138
      81    H38     20.812379   23.333664   18.703254 H          1 MOL1         0.0794
      82    H39     22.568245   23.448058   18.535104 H          1 MOL1         0.0794
      83    O20     21.627998   25.172756   19.235128 O.3        1 MOL1        -0.5486
      84    H40     21.606115   25.515136   18.315018 H          1 MOL1         0.3769
      85    C25     25.201163   17.725357   21.340789 C.3        1 MOL1         0.2972
      86    H41     25.879004   16.909861   21.057864 H          1 MOL1         0.0751
      87    O21     23.880219   17.232401   21.640565 O.3        1 MOL1        -0.3740
      88    C26     25.739089   18.436737   22.605505 C.3        1 MOL1         0.1003
      89    H42     26.734738   18.832824   22.367004 H          1 MOL1         0.0783
      90    O22     25.843133   17.499853   23.688911 O.3        1 MOL1        -0.5519
      91    H43     25.099903   16.859686   23.575033 H          1 MOL1         0.3769
      92    C27     24.831972   19.624748   23.006104 C.3        1 MOL1         0.1053
      93    H44     23.884274   19.211148   23.370064 H          1 MOL1         0.0783
      94    O23     25.456547   20.369063   24.056448 O.3        1 MOL1        -0.5519
      95    H45     25.746660   19.696018   24.711086 H          1 MOL1         0.3769
      96    C28     24.530862   20.558965   21.804722 C.3        1 MOL1         0.1018
      97    H46     25.421821   21.171275   21.613902 H          1 MOL1         0.0783
      98    C29     24.153907   19.776556   20.512108 C.3        1 MOL1         0.1043
      99    H47     23.156551   19.346975   20.662686 H          1 MOL1         0.0783
     100    O24     25.104441   18.704688   20.286219 O.3        1 MOL1        -0.3740
     101    C30     24.085968   20.627548   19.216010 C.3        1 MOL1         0.0138
     102    H48     23.057128   20.978971   19.079039 H          1 MOL1         0.0794
     103    H49     24.307020   19.976628   18.359430 H          1 MOL1         0.0794
     104    O25     24.981734   21.744612   19.218339 O.3        1 MOL1        -0.5486
     105    H50     24.584368   22.431454   19.803699 H          1 MOL1         0.3769
     106    C31     21.208341   14.159628   20.624235 C.3        1 MOL1         0.2972
     107    H51     20.776406   13.251064   20.185508 H          1 MOL1         0.0751
     108    O26     20.206104   14.953592   21.287426 O.3        1 MOL1        -0.3740
     109    C32     22.310009   13.797961   21.655361 C.3        1 MOL1         0.1003
     110    H52     23.052899   13.180622   21.133901 H          1 MOL1         0.0783
     111    O27     21.760033   13.048823   22.751736 O.3        1 MOL1        -0.5519
     112    H53     20.959322   13.538035   23.070717 H          1 MOL1         0.3769
     113    C33     23.031160   15.064619   22.181271 C.3        1 MOL1         0.1053
     114    H54     22.320119   15.625357   22.800007 H          1 MOL1         0.0783
     115    O28     24.158790   14.677088   22.974271 O.3        1 MOL1        -0.5519
     116    H55     23.820609   13.980022   23.578768 H          1 MOL1         0.3769
     117    C34     23.491917   15.987529   21.024917 C.3        1 MOL1         0.1018
     118    H56     24.331586   15.504625   20.508098 H          1 MOL1         0.0783
     119    C35     22.336943   16.247207   20.014846 C.3        1 MOL1         0.1043
     120    H57     21.552762   16.823120   20.524640 H          1 MOL1         0.0783
     121    O29     21.802760   14.970628   19.589980 O.3        1 MOL1        -0.3740
     122    C36     22.725370   17.032823   18.735995 C.3        1 MOL1         0.0138
     123    H58     22.593694   18.103602   18.926656 H          1 MOL1         0.0794
     124    H59     22.016768   16.769817   17.939275 H          1 MOL1         0.0794
     125    O30     24.064731   16.778749   18.298465 O.3        1 MOL1        -0.5486
     126    H60     24.654625   17.338365   18.854775 H          1 MOL1         0.3769
     127    C1      17.514297   20.932577   25.017424 C.2        1 MOL1         0.6173
     128    O1      16.423079   20.521613   24.667568 O.co2      1 MOL1        -0.6755
     129    O2      17.674682   21.641961   25.991978 O.co2      1 MOL1        -0.6755
     130    C2      18.724980   20.574644   24.227508 C.2        1 MOL1        -0.1504
     131    H1      19.659725   20.982416   24.599710 H          1 MOL1         0.0814
     132    C3      18.704489   19.793761   23.121904 C.2        1 MOL1        -0.1394
     133    H2      17.768278   19.387043   22.756066 H          1 MOL1         0.0817
     134    C4      19.915852   19.415210   22.294903 C.3        1 MOL1        -0.1849
     135    H3      20.223184   20.272548   21.683523 H          1 MOL1         0.0736
     136    H4      19.638724   18.619727   21.590619 H          1 MOL1         0.0736
     137    C5      21.119061   18.941129   23.136122 C.3        1 MOL1        -0.1866
     138    H5      21.936500   18.699683   22.451919 H          1 MOL1         0.0738
     139    H6      21.477015   19.755176   23.779364 H          1 MOL1         0.0738
     140    C6      20.811036   17.698284   23.993574 C.3        1 MOL1        -0.2879
     141    H7      20.498013   16.862182   23.360287 H          1 MOL1         0.0750
     142    H8      21.701814   17.385238   24.552695 H          1 MOL1         0.0750
     143    H9      20.010643   17.900459   24.716615 H          1 MOL1         0.0750
@<TRIPOS>BOND
    1     1     2    1
    2     1     3    1
    3     1     4    1
    4     4     5    1
    5     4     6    1
    6     6     7    1
    7     4     8    1
    8     8     9    1
    9     8    10    1
   10    10    11    1
   11     8    12    1
   12    12    13    1
   13    12    14    1
   14    14    15    1
   15     1    16    1
   16    14    16    1
   17    14    17    1
   18    17    18    1
   19    17    19    1
   20    17    20    1
   21    20    21    1
   22    22    23    1
   23    22    24    1
   24    22    25    1
   25    25    26    1
   26    25    27    1
   27    27    28    1
   28    25    29    1
   29    29    30    1
   30    29    31    1
   31    31    32    1
   32     3    33    1
   33    29    33    1
   34    33    34    1
   35    33    35    1
   36    35    36    1
   37    22    37    1
   38    35    37    1
   39    35    38    1
   40    38    39    1
   41    38    40    1
   42    38    41    1
   43    41    42    1
   44    43    44    1
   45    43    45    1
   46    43    46    1
   47    46    47    1
   48    46    48    1
   49    48    49    1
   50    46    50    1
   51    50    51    1
   52    50    52    1
   53    52    53    1
   54    24    54    1
   55    50    54    1
   56    54    55    1
   57    54    56    1
   58    56    57    1
   59    43    58    1
   60    56    58    1
   61    56    59    1
   62    59    60    1
   63    59    61    1
   64    59    62    1
   65    62    63    1
   66    64    65    1
   67    64    66    1
   68    64    67    1
   69    67    68    1
   70    67    69    1
   71    69    70    1
   72    67    71    1
   73    71    72    1
   74    71    73    1
   75    73    74    1
   76    45    75    1
   77    71    75    1
   78    75    76    1
   79    75    77    1
   80    77    78    1
   81    64    79    1
   82    77    79    1
   83    77    80    1
   84    80    81    1
   85    80    82    1
   86    80    83    1
   87    83    84    1
   88    85    86    1
   89    85    87    1
   90    85    88    1
   91    88    89    1
   92    88    90    1
   93    90    91    1
   94    88    92    1
   95    92    93    1
   96    92    94    1
   97    94    95    1
   98    66    96    1
   99    92    96    1
  100    96    97    1
  101    96    98    1
  102    98    99    1
  103    85   100    1
  104    98   100    1
  105    98   101    1
  106   101   102    1
  107   101   103    1
  108   101   104    1
  109   104   105    1
  110   106   107    1
  111    12   108    1
  112   106   108    1
  113   106   109    1
  114   109   110    1
  115   109   111    1
  116   111   112    1
  117   109   113    1
  118   113   114    1
  119   113   115    1
  120   115   116    1
  121    87   117    1
  122   113   117    1
  123   117   118    1
  124   117   119    1
  125   119   120    1
  126   106   121    1
  127   119   121    1
  128   119   122    1
  129   122   123    1
  130   122   124    1
  131   122   125    1
  132   125   126    1
  133   127   128    1
  134   127   129    2
  135   127   130    1
  136   130   131    1
  137   130   132    2
  138   132   133    1
  139   132   134    1
  140   134   135    1
  141   134   136    1
  142   134   137    1
  143   137   138    1
  144   137   139    1
  145   137   140    1
  146   140   141    1
  147   140   142    1
  148   140   143    1
@<TRIPOS>SUBSTRUCTURE
       1 MOL1            1 RESIDUE      1      MOL     
       2 MOL1          143 RESIDUE      1      MOL     
@<SCITEGIC>MOL_PROPERTY
feprocess Rank
SciTegic.value.IntegerValue
171

@<SCITEGIC>MOL_PROPERTY
Conf_Id
SciTegic.value.IntegerValue
191

@<SCITEGIC>MOL_PROPERTY
Probability
SciTegic.value.DoubleValue
0.00

@<SCITEGIC>MOL_PROPERTY
G
SciTegic.value.DoubleValue
505.292

@<SCITEGIC>MOL_PROPERTY
E
SciTegic.value.DoubleValue
322.863

@<SCITEGIC>MOL_PROPERTY
-TS
SciTegic.value.DoubleValue
182.429

@<SCITEGIC>MOL_PROPERTY
U+W
SciTegic.value.DoubleValue
196.775

@<SCITEGIC>MOL_PROPERTY
U
SciTegic.value.DoubleValue
278.773

@<SCITEGIC>MOL_PROPERTY
W
SciTegic.value.DoubleValue
-81.998

@<SCITEGIC>MOL_PROPERTY
W(PB)
SciTegic.value.DoubleValue
-88.008

@<SCITEGIC>MOL_PROPERTY
W(SA)
SciTegic.value.DoubleValue
6.010

@<SCITEGIC>MOL_PROPERTY
Valence
SciTegic.value.DoubleValue
150.437

@<SCITEGIC>MOL_PROPERTY
Coulomb
SciTegic.value.DoubleValue
154.409

@<SCITEGIC>MOL_PROPERTY
VdW
SciTegic.value.DoubleValue
-26.073

@<SCITEGIC>MOL_PROPERTY
VdW6
SciTegic.value.DoubleValue
-179.555

@<SCITEGIC>MOL_PROPERTY
VdW12
SciTegic.value.DoubleValue
153.482

@<SCITEGIC>MOL_PROPERTY
Bond
SciTegic.value.DoubleValue
4.784

@<SCITEGIC>MOL_PROPERTY
Angle
SciTegic.value.DoubleValue
14.005

@<SCITEGIC>MOL_PROPERTY
Pdih
SciTegic.value.DoubleValue
131.648

@<SCITEGIC>MOL_PROPERTY
Idih
SciTegic.value.DoubleValue
0.000

@<SCITEGIC>MOL_PROPERTY
Tether
SciTegic.value.DoubleValue
0.000

@<TRIPOS>MOLECULE
CD_guest-s19_fast_vm2_rndm.mol2 : feprocess host+ligand conformer 172
         143         148           2
SMALL
USER_CHARGES
 
@<TRIPOS>ATOM
       1    C1      16.313929   15.034448   22.009894 C.3        1 MOL1         0.2972
       2    H1      15.277197   14.896069   22.342243 H          1 MOL1         0.0751
       3    O1      16.660246   16.426245   21.880792 O.3        1 MOL1        -0.3740
       4    C2      17.286313   14.398103   23.028056 C.3        1 MOL1         0.1003
       5    H2      17.092717   13.317666   23.043987 H          1 MOL1         0.0783
       6    O2      17.067439   14.939813   24.340483 O.3        1 MOL1        -0.5519
       7    H3      16.763565   15.874520   24.224388 H          1 MOL1         0.3769
       8    C3      18.751211   14.616275   22.585795 C.3        1 MOL1         0.1053
       9    H4      18.977346   15.687795   22.680219 H          1 MOL1         0.0783
      10    O3      19.615733   13.866401   23.443852 O.3        1 MOL1        -0.5519
      11    H5      19.386294   14.153429   24.355508 H          1 MOL1         0.3769
      12    C4      18.988095   14.200724   21.108938 C.3        1 MOL1         0.1018
      13    H6      19.137637   13.113842   21.065358 H          1 MOL1         0.0783
      14    C5      17.840744   14.625653   20.143898 C.3        1 MOL1         0.1043
      15    H7      17.955913   15.699517   19.948012 H          1 MOL1         0.0783
      16    O4      16.534984   14.398112   20.735674 O.3        1 MOL1        -0.3740
      17    C6      17.890540   13.911526   18.772273 C.3        1 MOL1         0.0138
      18    H8      18.758280   14.288636   18.214403 H          1 MOL1         0.0794
      19    H9      16.992394   14.184783   18.202216 H          1 MOL1         0.0794
      20    O5      17.980720   12.487967   18.906787 O.3        1 MOL1        -0.5486
      21    H10     17.927720   12.099039   18.006430 H          1 MOL1         0.3769
      22    C7      14.996643   20.240148   21.663170 C.3        1 MOL1         0.2972
      23    H11     14.299313   21.086974   21.622856 H          1 MOL1         0.0751
      24    O6      16.356129   20.681195   21.492581 O.3        1 MOL1        -0.3740
      25    C8      14.859654   19.515161   23.029398 C.3        1 MOL1         0.1003
      26    H12     13.823460   19.161029   23.103252 H          1 MOL1         0.0783
      27    O7      15.124524   20.404241   24.123582 O.3        1 MOL1        -0.5519
      28    H13     16.091304   20.646377   24.067800 H          1 MOL1         0.3769
      29    C9      15.789879   18.283452   23.101656 C.3        1 MOL1         0.1053
      30    H14     16.829063   18.638281   23.081832 H          1 MOL1         0.0783
      31    O8      15.543996   17.559276   24.311991 O.3        1 MOL1        -0.5519
      32    H15     15.556821   18.241958   25.019492 H          1 MOL1         0.3769
      33    C10     15.570059   17.362284   21.880863 C.3        1 MOL1         0.1018
      34    H16     14.593248   16.870371   21.977048 H          1 MOL1         0.0783
      35    C11     15.628515   18.154045   20.547469 C.3        1 MOL1         0.1043
      36    H17     16.655461   18.521146   20.436858 H          1 MOL1         0.0783
      37    O9      14.718592   19.285352   20.609974 O.3        1 MOL1        -0.3740
      38    C12     15.309519   17.317370   19.280503 C.3        1 MOL1         0.0138
      39    H18     16.241603   16.864939   18.918997 H          1 MOL1         0.0794
      40    H19     14.958575   17.994137   18.490171 H          1 MOL1         0.0794
      41    O10     14.340915   16.288253   19.511014 O.3        1 MOL1        -0.5486
      42    H20     14.821685   15.530193   19.915607 H          1 MOL1         0.3769
      43    C13     18.711971   23.738217   20.015929 C.3        1 MOL1         0.2972
      44    H21     19.169177   24.578415   19.477716 H          1 MOL1         0.0751
      45    O11     19.682763   23.021264   20.801784 O.3        1 MOL1        -0.3740
      46    C14     17.552596   24.216290   20.928472 C.3        1 MOL1         0.1003
      47    H22     16.794837   24.661052   20.270367 H          1 MOL1         0.0783
      48    O12     17.987501   25.212813   21.866323 O.3        1 MOL1        -0.5519
      49    H23     18.669408   24.788895   22.446834 H          1 MOL1         0.3769
      50    C15     16.891924   23.022278   21.663588 C.3        1 MOL1         0.1053
      51    H24     17.602087   22.637696   22.410012 H          1 MOL1         0.0783
      52    O13     15.701709   23.486812   22.309854 O.3        1 MOL1        -0.5519
      53    H25     15.986289   24.242431   22.867988 H          1 MOL1         0.3769
      54    C16     16.537506   21.864695   20.690236 C.3        1 MOL1         0.1018
      55    H26     15.621568   22.139107   20.151329 H          1 MOL1         0.0783
      56    C17     17.663926   21.558484   19.659995 C.3        1 MOL1         0.1043
      57    H27     18.486479   21.062994   20.192745 H          1 MOL1         0.0783
      58    O14     18.142715   22.798245   19.080628 O.3        1 MOL1        -0.3740
      59    C18     17.253402   20.612040   18.500258 C.3        1 MOL1         0.0138
      60    H28     17.497871   19.582360   18.785944 H          1 MOL1         0.0794
      61    H29     17.873411   20.845251   17.624297 H          1 MOL1         0.0794
      62    O15     15.866013   20.700978   18.152281 O.3        1 MOL1        -0.5486
      63    H30     15.351182   20.325227   18.904123 H          1 MOL1         0.3769
      64    C19     23.429272   22.896034   22.352238 C.3        1 MOL1         0.2972
      65    H31     24.443630   23.025161   22.750894 H          1 MOL1         0.0751
      66    O16     23.090747   21.506125   22.179732 O.3        1 MOL1        -0.3740
      67    C20     22.398543   23.514625   23.323196 C.3        1 MOL1         0.1003
      68    H32     22.592465   24.593569   23.376921 H          1 MOL1         0.0783
      69    O17     22.559033   22.937268   24.628755 O.3        1 MOL1        -0.5519
      70    H33     22.814174   21.991621   24.499758 H          1 MOL1         0.3769
      71    C21     20.960066   23.313237   22.785024 C.3        1 MOL1         0.1053
      72    H34     20.722321   22.242054   22.846933 H          1 MOL1         0.0783
      73    O18     20.025887   24.056494   23.576213 O.3        1 MOL1        -0.5519
      74    H35     19.821880   23.478850   24.361493 H          1 MOL1         0.3769
      75    C22     20.820825   23.747485   21.301450 C.3        1 MOL1         0.1018
      76    H36     20.670288   24.834444   21.263203 H          1 MOL1         0.0783
      77    C23     22.024777   23.336953   20.402713 C.3        1 MOL1         0.1043
      78    H37     21.920062   22.266510   20.185044 H          1 MOL1         0.0783
      79    O19     23.290086   23.554216   21.078048 O.3        1 MOL1        -0.3740
      80    C24     22.062748   24.070095   19.040654 C.3        1 MOL1         0.0138
      81    H38     21.236627   23.697051   18.420429 H          1 MOL1         0.0794
      82    H39     22.998399   23.808758   18.528188 H          1 MOL1         0.0794
      83    O20     21.956563   25.491151   19.188293 O.3        1 MOL1        -0.5486
      84    H40     22.069987   25.893138   18.299316 H          1 MOL1         0.3769
      85    C25     24.790266   17.706602   21.918447 C.3        1 MOL1         0.2972
      86    H41     25.505747   16.874922   21.876992 H          1 MOL1         0.0751
      87    O21     23.439993   17.239519   21.727899 O.3        1 MOL1        -0.3740
      88    C26     24.874803   18.395859   23.304033 C.3        1 MOL1         0.1003
      89    H42     25.904567   18.753565   23.433110 H          1 MOL1         0.0783
      90    O22     24.565537   17.462644   24.349704 O.3        1 MOL1        -0.5519
      91    H43     23.866037   16.866951   23.996074 H          1 MOL1         0.3769
      92    C27     23.933009   19.620116   23.373608 C.3        1 MOL1         0.1053
      93    H44     22.896451   19.264717   23.306717 H          1 MOL1         0.0783
      94    O23     24.132381   20.310162   24.611207 O.3        1 MOL1        -0.5519
      95    H45     24.162369   19.603018   25.293415 H          1 MOL1         0.3769
      96    C28     24.183283   20.572895   22.183225 C.3        1 MOL1         0.1018
      97    H46     25.156135   21.064382   22.315657 H          1 MOL1         0.0783
      98    C29     24.158825   19.809296   20.831958 C.3        1 MOL1         0.1043
      99    H47     23.137943   19.434966   20.688599 H          1 MOL1         0.0783
     100    O24     25.076378   18.686050   20.893017 O.3        1 MOL1        -0.3740
     101    C30     24.507482   20.670150   19.589015 C.3        1 MOL1         0.0138
     102    H48     23.582034   21.112098   19.199705 H          1 MOL1         0.0794
     103    H49     24.897044   20.010512   18.802198 H          1 MOL1         0.0794
     104    O25     25.451372   21.710335   19.867414 O.3        1 MOL1        -0.5486
     105    H50     24.949018   22.447640   20.285124 H          1 MOL1         0.3769
     106    C31     21.200138   14.206090   20.004061 C.3        1 MOL1         0.2972
     107    H51     20.797107   13.368271   19.420653 H          1 MOL1         0.0751
     108    O26     20.156099   14.929350   20.686404 O.3        1 MOL1        -0.3740
     109    C32     22.264324   13.726720   21.027169 C.3        1 MOL1         0.1003
     110    H52     23.097754   13.305366   20.450066 H          1 MOL1         0.0783
     111    O27     21.753181   12.711729   21.903678 O.3        1 MOL1        -0.5519
     112    H53     21.014567   13.119337   22.422634 H          1 MOL1         0.3769
     113    C33     22.809304   14.928008   21.837212 C.3        1 MOL1         0.1053
     114    H54     21.990296   15.320893   22.453762 H          1 MOL1         0.0783
     115    O28     23.882688   14.490464   22.676156 O.3        1 MOL1        -0.5519
     116    H55     23.558892   13.668582   23.105599 H          1 MOL1         0.3769
     117    C34     23.301543   16.064340   20.903323 C.3        1 MOL1         0.1018
     118    H56     24.258916   15.753951   20.464766 H          1 MOL1         0.0783
     119    C35     22.294627   16.383996   19.758089 C.3        1 MOL1         0.1043
     120    H57     21.425594   16.890813   20.198133 H          1 MOL1         0.0783
     121    O29     21.864380   15.146920   19.133380 O.3        1 MOL1        -0.3740
     122    C36     22.837859   17.316535   18.643166 C.3        1 MOL1         0.0138
     123    H58     22.599491   18.353607   18.905498 H          1 MOL1         0.0794
     124    H59     22.294557   17.099761   17.713666 H          1 MOL1         0.0794
     125    O30     24.247574   17.184375   18.424528 O.3        1 MOL1        -0.5486
     126    H60     24.701587   17.603097   19.192803 H          1 MOL1         0.3769
     127    C1      18.934217   20.964063   24.818027 C.2        1 MOL1         0.6173
     128    O1      19.166470   22.052466   25.308948 O.co2      1 MOL1        -0.6755
     129    O2      17.895763   20.703165   24.240387 O.co2      1 MOL1        -0.6755
     130    C2      19.990354   19.922061   24.936314 C.2        1 MOL1        -0.1504
     131    H1      20.891968   20.222289   25.465039 H          1 MOL1         0.0814
     132    C3      19.871512   18.667823   24.443975 C.2        1 MOL1        -0.1394
     133    H2      18.970668   18.358175   23.916490 H          1 MOL1         0.0817
     134    C4      20.936445   17.604109   24.591921 C.3        1 MOL1        -0.1849
     135    H3      21.874922   18.054283   24.937569 H          1 MOL1         0.0736
     136    H4      21.139672   17.149991   23.614022 H          1 MOL1         0.0736
     137    C5      20.504474   16.518659   25.596180 C.3        1 MOL1        -0.1866
     138    H5      20.301762   16.983423   26.570828 H          1 MOL1         0.0738
     139    H6      19.563421   16.061474   25.264597 H          1 MOL1         0.0738
     140    C6      21.587653   15.433540   25.762349 C.3        1 MOL1        -0.2879
     141    H7      21.802774   14.938756   24.807675 H          1 MOL1         0.0750
     142    H8      22.522886   15.868577   26.138312 H          1 MOL1         0.0750
     143    H9      21.260235   14.666199   26.475328 H          1 MOL1         0.0750
@<TRIPOS>BOND
    1     1     2    1
    2     1     3    1
    3     1     4    1
    4     4     5    1
    5     4     6    1
    6     6     7    1
    7     4     8    1
    8     8     9    1
    9     8    10    1
   10    10    11    1
   11     8    12    1
   12    12    13    1
   13    12    14    1
   14    14    15    1
   15     1    16    1
   16    14    16    1
   17    14    17    1
   18    17    18    1
   19    17    19    1
   20    17    20    1
   21    20    21    1
   22    22    23    1
   23    22    24    1
   24    22    25    1
   25    25    26    1
   26    25    27    1
   27    27    28    1
   28    25    29    1
   29    29    30    1
   30    29    31    1
   31    31    32    1
   32     3    33    1
   33    29    33    1
   34    33    34    1
   35    33    35    1
   36    35    36    1
   37    22    37    1
   38    35    37    1
   39    35    38    1
   40    38    39    1
   41    38    40    1
   42    38    41    1
   43    41    42    1
   44    43    44    1
   45    43    45    1
   46    43    46    1
   47    46    47    1
   48    46    48    1
   49    48    49    1
   50    46    50    1
   51    50    51    1
   52    50    52    1
   53    52    53    1
   54    24    54    1
   55    50    54    1
   56    54    55    1
   57    54    56    1
   58    56    57    1
   59    43    58    1
   60    56    58    1
   61    56    59    1
   62    59    60    1
   63    59    61    1
   64    59    62    1
   65    62    63    1
   66    64    65    1
   67    64    66    1
   68    64    67    1
   69    67    68    1
   70    67    69    1
   71    69    70    1
   72    67    71    1
   73    71    72    1
   74    71    73    1
   75    73    74    1
   76    45    75    1
   77    71    75    1
   78    75    76    1
   79    75    77    1
   80    77    78    1
   81    64    79    1
   82    77    79    1
   83    77    80    1
   84    80    81    1
   85    80    82    1
   86    80    83    1
   87    83    84    1
   88    85    86    1
   89    85    87    1
   90    85    88    1
   91    88    89    1
   92    88    90    1
   93    90    91    1
   94    88    92    1
   95    92    93    1
   96    92    94    1
   97    94    95    1
   98    66    96    1
   99    92    96    1
  100    96    97    1
  101    96    98    1
  102    98    99    1
  103    85   100    1
  104    98   100    1
  105    98   101    1
  106   101   102    1
  107   101   103    1
  108   101   104    1
  109   104   105    1
  110   106   107    1
  111    12   108    1
  112   106   108    1
  113   106   109    1
  114   109   110    1
  115   109   111    1
  116   111   112    1
  117   109   113    1
  118   113   114    1
  119   113   115    1
  120   115   116    1
  121    87   117    1
  122   113   117    1
  123   117   118    1
  124   117   119    1
  125   119   120    1
  126   106   121    1
  127   119   121    1
  128   119   122    1
  129   122   123    1
  130   122   124    1
  131   122   125    1
  132   125   126    1
  133   127   128    1
  134   127   129    2
  135   127   130    1
  136   130   131    1
  137   130   132    2
  138   132   133    1
  139   132   134    1
  140   134   135    1
  141   134   136    1
  142   134   137    1
  143   137   138    1
  144   137   139    1
  145   137   140    1
  146   140   141    1
  147   140   142    1
  148   140   143    1
@<TRIPOS>SUBSTRUCTURE
       1 MOL1            1 RESIDUE      1      MOL     
       2 MOL1          143 RESIDUE      1      MOL     
@<SCITEGIC>MOL_PROPERTY
feprocess Rank
SciTegic.value.IntegerValue
172

@<SCITEGIC>MOL_PROPERTY
Conf_Id
SciTegic.value.IntegerValue
77

@<SCITEGIC>MOL_PROPERTY
Probability
SciTegic.value.DoubleValue
0.00

@<SCITEGIC>MOL_PROPERTY
G
SciTegic.value.DoubleValue
505.421

@<SCITEGIC>MOL_PROPERTY
E
SciTegic.value.DoubleValue
323.430

@<SCITEGIC>MOL_PROPERTY
-TS
SciTegic.value.DoubleValue
181.991

@<SCITEGIC>MOL_PROPERTY
U+W
SciTegic.value.DoubleValue
197.342

@<SCITEGIC>MOL_PROPERTY
U
SciTegic.value.DoubleValue
270.273

@<SCITEGIC>MOL_PROPERTY
W
SciTegic.value.DoubleValue
-72.931

@<SCITEGIC>MOL_PROPERTY
W(PB)
SciTegic.value.DoubleValue
-78.979

@<SCITEGIC>MOL_PROPERTY
W(SA)
SciTegic.value.DoubleValue
6.048

@<SCITEGIC>MOL_PROPERTY
Valence
SciTegic.value.DoubleValue
150.474

@<SCITEGIC>MOL_PROPERTY
Coulomb
SciTegic.value.DoubleValue
140.193

@<SCITEGIC>MOL_PROPERTY
VdW
SciTegic.value.DoubleValue
-20.394

@<SCITEGIC>MOL_PROPERTY
VdW6
SciTegic.value.DoubleValue
-174.411

@<SCITEGIC>MOL_PROPERTY
VdW12
SciTegic.value.DoubleValue
154.017

@<SCITEGIC>MOL_PROPERTY
Bond
SciTegic.value.DoubleValue
4.971

@<SCITEGIC>MOL_PROPERTY
Angle
SciTegic.value.DoubleValue
14.833

@<SCITEGIC>MOL_PROPERTY
Pdih
SciTegic.value.DoubleValue
130.669

@<SCITEGIC>MOL_PROPERTY
Idih
SciTegic.value.DoubleValue
0.001

@<SCITEGIC>MOL_PROPERTY
Tether
SciTegic.value.DoubleValue
0.000

@<TRIPOS>MOLECULE
CD_guest-s19_fast_vm2_rndm.mol2 : feprocess host+ligand conformer 173
         143         148           2
SMALL
USER_CHARGES
 
@<TRIPOS>ATOM
       1    C1      16.129598   15.229926   20.961626 C.3        1 MOL1         0.2972
       2    H1      15.091438   15.028769   20.668793 H          1 MOL1         0.0751
       3    O1      16.264818   16.523916   21.577155 O.3        1 MOL1        -0.3740
       4    C2      16.591858   14.184777   22.007768 C.3        1 MOL1         0.1003
       5    H2      16.474317   13.189856   21.559023 H          1 MOL1         0.0783
       6    O2      15.780098   14.275831   23.190025 O.3        1 MOL1        -0.5519
       7    H3      15.602983   15.237501   23.336842 H          1 MOL1         0.3769
       8    C3      18.085606   14.378337   22.365499 C.3        1 MOL1         0.1053
       9    H4      18.191778   15.328220   22.907948 H          1 MOL1         0.0783
      10    O3      18.524151   13.293920   23.191536 O.3        1 MOL1        -0.5519
      11    H5      17.828186   13.197883   23.879161 H          1 MOL1         0.3769
      12    C4      18.952097   14.454002   21.086621 C.3        1 MOL1         0.1018
      13    H6      18.953736   13.464643   20.610504 H          1 MOL1         0.0783
      14    C5      18.392956   15.499644   20.084150 C.3        1 MOL1         0.1043
      15    H7      18.447094   16.490975   20.549754 H          1 MOL1         0.0783
      16    O4      17.007350   15.167547   19.815583 O.3        1 MOL1        -0.3740
      17    C6      19.154775   15.596068   18.737759 C.3        1 MOL1         0.0138
      18    H8      20.000590   16.284330   18.865838 H          1 MOL1         0.0794
      19    H9      18.490514   16.052142   17.992133 H          1 MOL1         0.0794
      20    O5      19.631505   14.329637   18.268193 O.3        1 MOL1        -0.5486
      21    H10     20.502109   14.180853   18.703741 H          1 MOL1         0.3769
      22    C7      14.544408   20.321663   21.449142 C.3        1 MOL1         0.2972
      23    H11     13.848277   21.162957   21.339171 H          1 MOL1         0.0751
      24    O6      15.870375   20.773278   21.782717 O.3        1 MOL1        -0.3740
      25    C8      14.067815   19.397218   22.595315 C.3        1 MOL1         0.1003
      26    H12     13.059491   19.044513   22.342405 H          1 MOL1         0.0783
      27    O7      14.023567   20.127466   23.831638 O.3        1 MOL1        -0.5519
      28    H13     14.754124   20.791377   23.790687 H          1 MOL1         0.3769
      29    C9      14.990013   18.162396   22.729916 C.3        1 MOL1         0.1053
      30    H14     15.973107   18.505740   23.081313 H          1 MOL1         0.0783
      31    O8      14.428240   17.246910   23.677762 O.3        1 MOL1        -0.5519
      32    H15     14.185926   17.799091   24.453917 H          1 MOL1         0.3769
      33    C10     15.185990   17.453754   21.367825 C.3        1 MOL1         0.1018
      34    H16     14.249108   16.944092   21.107291 H          1 MOL1         0.0783
      35    C11     15.572788   18.459900   20.245409 C.3        1 MOL1         0.1043
      36    H17     16.568838   18.855330   20.479113 H          1 MOL1         0.0783
      37    O9      14.614151   19.549115   20.232774 O.3        1 MOL1        -0.3740
      38    C12     15.646654   17.872443   18.813939 C.3        1 MOL1         0.0138
      39    H18     16.643480   17.437096   18.669196 H          1 MOL1         0.0794
      40    H19     15.559597   18.695974   18.093301 H          1 MOL1         0.0794
      41    O10     14.638210   16.888934   18.555404 O.3        1 MOL1        -0.5486
      42    H20     15.078276   16.013529   18.626332 H          1 MOL1         0.3769
      43    C13     18.446022   24.009297   21.205674 C.3        1 MOL1         0.2972
      44    H21     18.852984   24.998240   20.959082 H          1 MOL1         0.0751
      45    O11     19.482049   23.101069   21.623514 O.3        1 MOL1        -0.3740
      46    C14     17.429637   24.144463   22.365379 C.3        1 MOL1         0.1003
      47    H22     16.648688   24.844375   22.040987 H          1 MOL1         0.0783
      48    O12     18.079269   24.665236   23.536040 O.3        1 MOL1        -0.5519
      49    H23     19.021676   24.368061   23.492612 H          1 MOL1         0.3769
      50    C15     16.755172   22.788966   22.679240 C.3        1 MOL1         0.1053
      51    H24     17.512974   22.122790   23.108411 H          1 MOL1         0.0783
      52    O13     15.697877   22.988019   23.624321 O.3        1 MOL1        -0.5519
      53    H25     16.090381   23.546939   24.331151 H          1 MOL1         0.3769
      54    C16     16.201037   22.120813   21.398058 C.3        1 MOL1         0.1018
      55    H26     15.319145   22.685419   21.068183 H          1 MOL1         0.0783
      56    C17     17.259913   22.091502   20.257395 C.3        1 MOL1         0.1043
      57    H27     18.074039   21.421072   20.564431 H          1 MOL1         0.0783
      58    O14     17.776678   23.433451   20.065187 O.3        1 MOL1        -0.3740
      59    C18     16.751144   21.586422   18.883432 C.3        1 MOL1         0.0138
      60    H28     16.868311   20.497549   18.847255 H          1 MOL1         0.0794
      61    H29     17.401748   21.994091   18.098445 H          1 MOL1         0.0794
      62    O15     15.387640   21.936363   18.621270 O.3        1 MOL1        -0.5486
      63    H30     14.837101   21.234831   19.039252 H          1 MOL1         0.3769
      64    C19     23.636811   22.628868   21.114014 C.3        1 MOL1         0.2972
      65    H31     24.672006   22.815724   20.800617 H          1 MOL1         0.0751
      66    O16     23.502536   21.354575   21.765675 O.3        1 MOL1        -0.3740
      67    C20     23.178577   23.702030   22.135490 C.3        1 MOL1         0.1003
      68    H32     23.314012   24.685321   21.666794 H          1 MOL1         0.0783
      69    O17     23.976981   23.626013   23.328403 O.3        1 MOL1        -0.5519
      70    H33     24.088648   22.664818   23.532973 H          1 MOL1         0.3769
      71    C21     21.677666   23.538628   22.486272 C.3        1 MOL1         0.1053
      72    H34     21.556181   22.604616   23.051625 H          1 MOL1         0.0783
      73    O18     21.247709   24.649775   23.281240 O.3        1 MOL1        -0.5519
      74    H35     21.931738   24.745274   23.980182 H          1 MOL1         0.3769
      75    C22     20.817033   23.440502   21.204137 C.3        1 MOL1         0.1018
      76    H36     20.850917   24.410271   20.690434 H          1 MOL1         0.0783
      77    C23     21.363799   22.344308   20.250045 C.3        1 MOL1         0.1043
      78    H37     21.294842   21.369714   20.751838 H          1 MOL1         0.0783
      79    O19     22.749569   22.658777   19.975584 O.3        1 MOL1        -0.3740
      80    C24     20.626937   22.215186   18.893017 C.3        1 MOL1         0.0138
      81    H38     19.762349   21.553739   19.025659 H          1 MOL1         0.0794
      82    H39     21.295770   21.710903   18.182879 H          1 MOL1         0.0794
      83    O20     20.197462   23.475138   18.362646 O.3        1 MOL1        -0.5486
      84    H40     19.343982   23.688365   18.805811 H          1 MOL1         0.3769
      85    C25     25.226542   17.605915   21.842138 C.3        1 MOL1         0.2972
      86    H41     25.888142   16.730243   21.840122 H          1 MOL1         0.0751
      87    O21     23.841080   17.227237   21.911685 O.3        1 MOL1        -0.3740
      88    C26     25.534161   18.491628   23.071431 C.3        1 MOL1         0.1003
      89    H42     26.574868   18.830863   22.988672 H          1 MOL1         0.0783
      90    O22     25.371104   17.734440   24.281517 O.3        1 MOL1        -0.5519
      91    H43     24.685868   17.045914   24.095222 H          1 MOL1         0.3769
      92    C27     24.620026   19.737323   23.084674 C.3        1 MOL1         0.1053
      93    H44     23.592537   19.397698   23.266660 H          1 MOL1         0.0783
      94    O23     25.026936   20.622390   24.134945 O.3        1 MOL1        -0.5519
      95    H45     25.121078   20.049557   24.927710 H          1 MOL1         0.3769
      96    C28     24.649852   20.486109   21.729643 C.3        1 MOL1         0.1018
      97    H46     25.588556   21.052721   21.674058 H          1 MOL1         0.0783
      98    C29     24.524258   19.533001   20.502122 C.3        1 MOL1         0.1043
      99    H47     23.486290   19.179829   20.455809 H          1 MOL1         0.0783
     100    O24     25.416162   18.396707   20.652769 O.3        1 MOL1        -0.3740
     101    C30     24.842250   20.192813   19.138809 C.3        1 MOL1         0.0138
     102    H48     23.998140   20.830334   18.849148 H          1 MOL1         0.0794
     103    H49     24.916916   19.402967   18.379389 H          1 MOL1         0.0794
     104    O25     26.052046   20.960969   19.176283 O.3        1 MOL1        -0.5486
     105    H50     26.215258   21.301881   18.270127 H          1 MOL1         0.3769
     106    C31     21.341497   13.976668   21.122558 C.3        1 MOL1         0.2972
     107    H51     20.970547   12.987519   20.825471 H          1 MOL1         0.0751
     108    O26     20.267561   14.855116   21.507543 O.3        1 MOL1        -0.3740
     109    C32     22.290040   13.831001   22.338060 C.3        1 MOL1         0.1003
     110    H52     23.113821   13.169969   22.038978 H          1 MOL1         0.0783
     111    O27     21.594539   13.248231   23.452087 O.3        1 MOL1        -0.5519
     112    H53     20.645207   13.517446   23.371790 H          1 MOL1         0.3769
     113    C33     22.893178   15.198964   22.730209 C.3        1 MOL1         0.1053
     114    H54     22.080914   15.838769   23.100789 H          1 MOL1         0.0783
     115    O28     23.876258   15.015637   23.755352 O.3        1 MOL1        -0.5519
     116    H55     23.453838   14.412355   24.406564 H          1 MOL1         0.3769
     117    C34     23.528904   15.887101   21.499880 C.3        1 MOL1         0.1018
     118    H56     24.425389   15.324149   21.208714 H          1 MOL1         0.0783
     119    C35     22.543249   15.941696   20.298335 C.3        1 MOL1         0.1043
     120    H57     21.699438   16.588715   20.572140 H          1 MOL1         0.0783
     121    O29     22.060944   14.598291   20.035284 O.3        1 MOL1        -0.3740
     122    C36     23.139949   16.508743   18.984350 C.3        1 MOL1         0.0138
     123    H58     23.011787   17.597864   18.983913 H          1 MOL1         0.0794
     124    H59     22.552080   16.125505   18.139934 H          1 MOL1         0.0794
     125    O30     24.524922   16.187934   18.807542 O.3        1 MOL1        -0.5486
     126    H60     25.033491   16.827722   19.357976 H          1 MOL1         0.3769
     127    C1      19.843556   18.914266   20.027623 C.2        1 MOL1         0.6173
     128    O1      20.947846   19.002792   19.522433 O.co2      1 MOL1        -0.6755
     129    O2      18.810946   18.931741   19.385686 O.co2      1 MOL1        -0.6755
     130    C2      19.725076   18.752198   21.502124 C.2        1 MOL1        -0.1504
     131    H1      18.715682   18.648488   21.892797 H          1 MOL1         0.0814
     132    C3      20.788201   18.730216   22.336365 C.2        1 MOL1        -0.1394
     133    H2      21.794674   18.846187   21.944431 H          1 MOL1         0.0817
     134    C4      20.693776   18.551165   23.836656 C.3        1 MOL1        -0.1849
     135    H3      21.498778   17.882541   24.167745 H          1 MOL1         0.0736
     136    H4      19.751545   18.055726   24.106596 H          1 MOL1         0.0736
     137    C5      20.818512   19.889967   24.595956 C.3        1 MOL1        -0.1866
     138    H5      20.895346   19.688765   25.672924 H          1 MOL1         0.0738
     139    H6      21.747051   20.398198   24.303398 H          1 MOL1         0.0738
     140    C6      19.617488   20.821789   24.341254 C.3        1 MOL1        -0.2879
     141    H7      18.679275   20.351027   24.661684 H          1 MOL1         0.0750
     142    H8      19.732529   21.765887   24.888837 H          1 MOL1         0.0750
     143    H9      19.534259   21.057187   23.274152 H          1 MOL1         0.0750
@<TRIPOS>BOND
    1     1     2    1
    2     1     3    1
    3     1     4    1
    4     4     5    1
    5     4     6    1
    6     6     7    1
    7     4     8    1
    8     8     9    1
    9     8    10    1
   10    10    11    1
   11     8    12    1
   12    12    13    1
   13    12    14    1
   14    14    15    1
   15     1    16    1
   16    14    16    1
   17    14    17    1
   18    17    18    1
   19    17    19    1
   20    17    20    1
   21    20    21    1
   22    22    23    1
   23    22    24    1
   24    22    25    1
   25    25    26    1
   26    25    27    1
   27    27    28    1
   28    25    29    1
   29    29    30    1
   30    29    31    1
   31    31    32    1
   32     3    33    1
   33    29    33    1
   34    33    34    1
   35    33    35    1
   36    35    36    1
   37    22    37    1
   38    35    37    1
   39    35    38    1
   40    38    39    1
   41    38    40    1
   42    38    41    1
   43    41    42    1
   44    43    44    1
   45    43    45    1
   46    43    46    1
   47    46    47    1
   48    46    48    1
   49    48    49    1
   50    46    50    1
   51    50    51    1
   52    50    52    1
   53    52    53    1
   54    24    54    1
   55    50    54    1
   56    54    55    1
   57    54    56    1
   58    56    57    1
   59    43    58    1
   60    56    58    1
   61    56    59    1
   62    59    60    1
   63    59    61    1
   64    59    62    1
   65    62    63    1
   66    64    65    1
   67    64    66    1
   68    64    67    1
   69    67    68    1
   70    67    69    1
   71    69    70    1
   72    67    71    1
   73    71    72    1
   74    71    73    1
   75    73    74    1
   76    45    75    1
   77    71    75    1
   78    75    76    1
   79    75    77    1
   80    77    78    1
   81    64    79    1
   82    77    79    1
   83    77    80    1
   84    80    81    1
   85    80    82    1
   86    80    83    1
   87    83    84    1
   88    85    86    1
   89    85    87    1
   90    85    88    1
   91    88    89    1
   92    88    90    1
   93    90    91    1
   94    88    92    1
   95    92    93    1
   96    92    94    1
   97    94    95    1
   98    66    96    1
   99    92    96    1
  100    96    97    1
  101    96    98    1
  102    98    99    1
  103    85   100    1
  104    98   100    1
  105    98   101    1
  106   101   102    1
  107   101   103    1
  108   101   104    1
  109   104   105    1
  110   106   107    1
  111    12   108    1
  112   106   108    1
  113   106   109    1
  114   109   110    1
  115   109   111    1
  116   111   112    1
  117   109   113    1
  118   113   114    1
  119   113   115    1
  120   115   116    1
  121    87   117    1
  122   113   117    1
  123   117   118    1
  124   117   119    1
  125   119   120    1
  126   106   121    1
  127   119   121    1
  128   119   122    1
  129   122   123    1
  130   122   124    1
  131   122   125    1
  132   125   126    1
  133   127   128    1
  134   127   129    2
  135   127   130    1
  136   130   131    1
  137   130   132    2
  138   132   133    1
  139   132   134    1
  140   134   135    1
  141   134   136    1
  142   134   137    1
  143   137   138    1
  144   137   139    1
  145   137   140    1
  146   140   141    1
  147   140   142    1
  148   140   143    1
@<TRIPOS>SUBSTRUCTURE
       1 MOL1            1 RESIDUE      1      MOL     
       2 MOL1          143 RESIDUE      1      MOL     
@<SCITEGIC>MOL_PROPERTY
feprocess Rank
SciTegic.value.IntegerValue
173

@<SCITEGIC>MOL_PROPERTY
Conf_Id
SciTegic.value.IntegerValue
654

@<SCITEGIC>MOL_PROPERTY
Probability
SciTegic.value.DoubleValue
0.00

@<SCITEGIC>MOL_PROPERTY
G
SciTegic.value.DoubleValue
505.439

@<SCITEGIC>MOL_PROPERTY
E
SciTegic.value.DoubleValue
323.719

@<SCITEGIC>MOL_PROPERTY
-TS
SciTegic.value.DoubleValue
181.720

@<SCITEGIC>MOL_PROPERTY
U+W
SciTegic.value.DoubleValue
197.631

@<SCITEGIC>MOL_PROPERTY
U
SciTegic.value.DoubleValue
262.995

@<SCITEGIC>MOL_PROPERTY
W
SciTegic.value.DoubleValue
-65.365

@<SCITEGIC>MOL_PROPERTY
W(PB)
SciTegic.value.DoubleValue
-71.232

@<SCITEGIC>MOL_PROPERTY
W(SA)
SciTegic.value.DoubleValue
5.867

@<SCITEGIC>MOL_PROPERTY
Valence
SciTegic.value.DoubleValue
152.235

@<SCITEGIC>MOL_PROPERTY
Coulomb
SciTegic.value.DoubleValue
140.974

@<SCITEGIC>MOL_PROPERTY
VdW
SciTegic.value.DoubleValue
-30.214

@<SCITEGIC>MOL_PROPERTY
VdW6
SciTegic.value.DoubleValue
-185.283

@<SCITEGIC>MOL_PROPERTY
VdW12
SciTegic.value.DoubleValue
155.070

@<SCITEGIC>MOL_PROPERTY
Bond
SciTegic.value.DoubleValue
4.336

@<SCITEGIC>MOL_PROPERTY
Angle
SciTegic.value.DoubleValue
13.112

@<SCITEGIC>MOL_PROPERTY
Pdih
SciTegic.value.DoubleValue
134.786

@<SCITEGIC>MOL_PROPERTY
Idih
SciTegic.value.DoubleValue
0.001

@<SCITEGIC>MOL_PROPERTY
Tether
SciTegic.value.DoubleValue
0.000

@<TRIPOS>MOLECULE
CD_guest-s19_fast_vm2_rndm.mol2 : feprocess host+ligand conformer 174
         143         148           2
SMALL
USER_CHARGES
 
@<TRIPOS>ATOM
       1    C1      16.350297   15.340880   21.382138 C.3        1 MOL1         0.2972
       2    H1      15.290411   15.158784   21.160565 H          1 MOL1         0.0751
       3    O1      16.607832   16.749064   21.553810 O.3        1 MOL1        -0.3740
       4    C2      16.737275   14.598413   22.683435 C.3        1 MOL1         0.1003
       5    H2      16.515010   13.534695   22.527646 H          1 MOL1         0.0783
       6    O2      15.954856   15.086145   23.783921 O.3        1 MOL1        -0.5519
       7    H3      15.694720   16.006738   23.549626 H          1 MOL1         0.3769
       8    C3      18.247595   14.722900   22.995956 C.3        1 MOL1         0.1053
       9    H4      18.454021   15.758092   23.302381 H          1 MOL1         0.0783
      10    O3      18.560058   13.821387   24.061760 O.3        1 MOL1        -0.5519
      11    H5      17.922695   14.036251   24.776915 H          1 MOL1         0.3769
      12    C4      19.123390   14.401317   21.756797 C.3        1 MOL1         0.1018
      13    H6      19.135565   13.314613   21.601122 H          1 MOL1         0.0783
      14    C5      18.605946   15.101949   20.470538 C.3        1 MOL1         0.1043
      15    H7      18.776762   16.176776   20.598911 H          1 MOL1         0.0783
      16    O4      17.186432   14.857478   20.309485 O.3        1 MOL1        -0.3740
      17    C6      19.321341   14.677007   19.159748 C.3        1 MOL1         0.0138
      18    H8      20.130650   15.388255   18.956825 H          1 MOL1         0.0794
      19    H9      18.613475   14.771653   18.325474 H          1 MOL1         0.0794
      20    O5      19.843366   13.342553   19.202454 O.3        1 MOL1        -0.5486
      21    H10     20.568660   13.328273   19.869628 H          1 MOL1         0.3769
      22    C7      14.847455   20.410149   20.464703 C.3        1 MOL1         0.2972
      23    H11     14.241646   21.166222   19.948825 H          1 MOL1         0.0751
      24    O6      15.714733   21.017829   21.441610 O.3        1 MOL1        -0.3740
      25    C8      13.925074   19.405879   21.205021 C.3        1 MOL1         0.1003
      26    H12     13.238125   18.980977   20.461630 H          1 MOL1         0.0783
      27    O7      13.170124   20.083549   22.220298 O.3        1 MOL1        -0.5519
      28    H13     13.813055   20.656345   22.698574 H          1 MOL1         0.3769
      29    C9      14.729648   18.240891   21.834833 C.3        1 MOL1         0.1053
      30    H14     15.307572   18.645385   22.672668 H          1 MOL1         0.0783
      31    O8      13.824190   17.242958   22.315987 O.3        1 MOL1        -0.5519
      32    H15     13.145080   17.734028   22.828825 H          1 MOL1         0.3769
      33    C10     15.720183   17.617124   20.820236 C.3        1 MOL1         0.1018
      34    H16     15.144386   17.065987   20.064733 H          1 MOL1         0.0783
      35    C11     16.565297   18.703766   20.103915 C.3        1 MOL1         0.1043
      36    H17     17.210824   19.196761   20.842038 H          1 MOL1         0.0783
      37    O9      15.656801   19.668265   19.526921 O.3        1 MOL1        -0.3740
      38    C12     17.482630   18.178431   18.970245 C.3        1 MOL1         0.0138
      39    H18     18.446747   17.890440   19.405363 H          1 MOL1         0.0794
      40    H19     17.688481   19.005377   18.277638 H          1 MOL1         0.0794
      41    O10     16.918126   17.072117   18.255234 O.3        1 MOL1        -0.5486
      42    H20     16.883211   16.307085   18.875063 H          1 MOL1         0.3769
      43    C13     18.456581   24.135625   21.416177 C.3        1 MOL1         0.2972
      44    H21     18.989620   25.092507   21.345588 H          1 MOL1         0.0751
      45    O11     19.368523   23.032481   21.590548 O.3        1 MOL1        -0.3740
      46    C14     17.441647   24.157880   22.583439 C.3        1 MOL1         0.1003
      47    H22     16.721602   24.958623   22.370101 H          1 MOL1         0.0783
      48    O12     18.087791   24.434652   23.835853 O.3        1 MOL1        -0.5519
      49    H23     18.809524   23.764880   23.949877 H          1 MOL1         0.3769
      50    C15     16.658191   22.826289   22.655080 C.3        1 MOL1         0.1053
      51    H24     17.359003   22.037112   22.962040 H          1 MOL1         0.0783
      52    O13     15.617952   22.959277   23.630082 O.3        1 MOL1        -0.5519
      53    H25     16.061217   23.299397   24.437032 H          1 MOL1         0.3769
      54    C16     16.042505   22.420396   21.286860 C.3        1 MOL1         0.1018
      55    H26     15.132569   23.015597   21.138089 H          1 MOL1         0.0783
      56    C17     17.022033   22.642497   20.083321 C.3        1 MOL1         0.1043
      57    H27     17.764673   21.833737   20.085775 H          1 MOL1         0.0783
      58    O14     17.704020   23.914213   20.212340 O.3        1 MOL1        -0.3740
      59    C18     16.355360   22.682339   18.681905 C.3        1 MOL1         0.0138
      60    H28     16.164044   21.663611   18.330586 H          1 MOL1         0.0794
      61    H29     17.071721   23.120275   17.973690 H          1 MOL1         0.0794
      62    O15     15.138672   23.439907   18.675224 O.3        1 MOL1        -0.5486
      63    H30     14.826815   23.493632   17.745493 H          1 MOL1         0.3769
      64    C19     23.418421   22.258325   22.141852 C.3        1 MOL1         0.2972
      65    H31     24.492509   22.310084   22.359764 H          1 MOL1         0.0751
      66    O16     23.055582   20.987341   21.571762 O.3        1 MOL1        -0.3740
      67    C20     22.603654   22.479089   23.441451 C.3        1 MOL1         0.1003
      68    H32     22.825564   23.494465   23.794287 H          1 MOL1         0.0783
      69    O17     22.978536   21.544419   24.463167 O.3        1 MOL1        -0.5519
      70    H33     22.751471   20.633374   24.127121 H          1 MOL1         0.3769
      71    C21     21.088535   22.396868   23.150411 C.3        1 MOL1         0.1053
      72    H34     20.860815   21.379995   22.808005 H          1 MOL1         0.0783
      73    O18     20.356703   22.689608   24.345296 O.3        1 MOL1        -0.5519
      74    H35     20.754723   22.108940   25.031495 H          1 MOL1         0.3769
      75    C22     20.697600   23.387703   22.028430 C.3        1 MOL1         0.1018
      76    H36     20.735594   24.404744   22.441381 H          1 MOL1         0.0783
      77    C23     21.638764   23.282854   20.793495 C.3        1 MOL1         0.1043
      78    H37     21.413917   22.335331   20.291218 H          1 MOL1         0.0783
      79    O19     23.034143   23.284819   21.199552 O.3        1 MOL1        -0.3740
      80    C24     21.431050   24.413760   19.757747 C.3        1 MOL1         0.0138
      81    H38     20.461894   24.261103   19.263685 H          1 MOL1         0.0794
      82    H39     22.206921   24.329799   18.984984 H          1 MOL1         0.0794
      83    O20     21.468672   25.712070   20.363348 O.3        1 MOL1        -0.5486
      84    H40     21.408975   26.378061   19.644016 H          1 MOL1         0.3769
      85    C25     24.700604   17.524988   20.044522 C.3        1 MOL1         0.2972
      86    H41     25.248189   16.743639   19.503350 H          1 MOL1         0.0751
      87    O21     23.533946   16.989579   20.703216 O.3        1 MOL1        -0.3740
      88    C26     25.620890   18.256732   21.057567 C.3        1 MOL1         0.1003
      89    H42     26.415060   18.734808   20.469362 H          1 MOL1         0.0783
      90    O22     26.229016   17.347850   21.987526 O.3        1 MOL1        -0.5519
      91    H43     25.504855   17.019122   22.577890 H          1 MOL1         0.3769
      92    C27     24.854959   19.378517   21.803700 C.3        1 MOL1         0.1053
      93    H44     24.123332   18.909029   22.473844 H          1 MOL1         0.0783
      94    O23     25.798480   20.142784   22.562594 O.3        1 MOL1        -0.5519
      95    H45     26.299182   19.486245   23.093650 H          1 MOL1         0.3769
      96    C28     24.081948   20.306493   20.824865 C.3        1 MOL1         0.1018
      97    H46     24.793032   21.012644   20.377945 H          1 MOL1         0.0783
      98    C29     23.347637   19.529028   19.695664 C.3        1 MOL1         0.1043
      99    H47     22.478859   19.027444   20.142751 H          1 MOL1         0.0783
     100    O24     24.233405   18.533355   19.121816 O.3        1 MOL1        -0.3740
     101    C30     22.793379   20.424485   18.556746 C.3        1 MOL1         0.0138
     102    H48     21.790868   20.765607   18.843234 H          1 MOL1         0.0794
     103    H49     22.669981   19.808527   17.656007 H          1 MOL1         0.0794
     104    O25     23.623162   21.557303   18.267976 O.3        1 MOL1        -0.5486
     105    H50     23.614188   22.137808   19.061406 H          1 MOL1         0.3769
     106    C31     21.450556   13.965886   22.390063 C.3        1 MOL1         0.2972
     107    H51     21.006359   13.072527   22.847782 H          1 MOL1         0.0751
     108    O26     20.440239   14.926736   22.015396 O.3        1 MOL1        -0.3740
     109    C32     22.448441   14.620965   23.374502 C.3        1 MOL1         0.1003
     110    H52     23.285897   13.923987   23.507137 H          1 MOL1         0.0783
     111    O27     21.824378   14.840430   24.648833 O.3        1 MOL1        -0.5519
     112    H53     22.061226   15.753677   24.952234 H          1 MOL1         0.3769
     113    C33     23.012841   15.926003   22.764767 C.3        1 MOL1         0.1053
     114    H54     22.183494   16.639771   22.668705 H          1 MOL1         0.0783
     115    O28     24.024017   16.474378   23.619928 O.3        1 MOL1        -0.5519
     116    H55     23.536783   17.026934   24.289122 H          1 MOL1         0.3769
     117    C34     23.597118   15.699591   21.344441 C.3        1 MOL1         0.1018
     118    H56     24.623335   15.322805   21.432502 H          1 MOL1         0.0783
     119    C35     22.741491   14.747498   20.456151 C.3        1 MOL1         0.1043
     120    H57     21.907119   15.344947   20.074475 H          1 MOL1         0.0783
     121    O29     22.198229   13.626055   21.203299 O.3        1 MOL1        -0.3740
     122    C36     23.500201   14.196817   19.224619 C.3        1 MOL1         0.0138
     123    H58     23.747737   15.033463   18.557571 H          1 MOL1         0.0794
     124    H59     22.824404   13.532513   18.669520 H          1 MOL1         0.0794
     125    O30     24.691484   13.486062   19.586425 O.3        1 MOL1        -0.5486
     126    H60     25.341647   14.128926   19.938855 H          1 MOL1         0.3769
     127    C1      21.491680   18.286481   24.695535 C.2        1 MOL1         0.6173
     128    O1      22.114283   17.528064   25.415571 O.co2      1 MOL1        -0.6755
     129    O2      22.037324   19.000380   23.876645 O.co2      1 MOL1        -0.6755
     130    C2      20.007292   18.261436   24.773517 C.2        1 MOL1        -0.1504
     131    H1      19.578266   17.600310   25.522498 H          1 MOL1         0.0814
     132    C3      19.208578   19.002207   23.973255 C.2        1 MOL1        -0.1394
     133    H2      19.633693   19.652802   23.213039 H          1 MOL1         0.0817
     134    C4      17.700457   18.997001   24.042267 C.3        1 MOL1        -0.1849
     135    H3      17.328050   17.964310   24.039016 H          1 MOL1         0.0736
     136    H4      17.305523   19.485017   23.144301 H          1 MOL1         0.0736
     137    C5      17.180035   19.740297   25.288370 C.3        1 MOL1        -0.1866
     138    H5      17.562383   19.253698   26.195876 H          1 MOL1         0.0738
     139    H6      17.566428   20.769013   25.290406 H          1 MOL1         0.0738
     140    C6      15.639040   19.768934   25.329733 C.3        1 MOL1        -0.2879
     141    H7      15.235456   20.298005   24.457569 H          1 MOL1         0.0750
     142    H8      15.226120   18.751880   25.338326 H          1 MOL1         0.0750
     143    H9      15.286610   20.287482   26.230386 H          1 MOL1         0.0750
@<TRIPOS>BOND
    1     1     2    1
    2     1     3    1
    3     1     4    1
    4     4     5    1
    5     4     6    1
    6     6     7    1
    7     4     8    1
    8     8     9    1
    9     8    10    1
   10    10    11    1
   11     8    12    1
   12    12    13    1
   13    12    14    1
   14    14    15    1
   15     1    16    1
   16    14    16    1
   17    14    17    1
   18    17    18    1
   19    17    19    1
   20    17    20    1
   21    20    21    1
   22    22    23    1
   23    22    24    1
   24    22    25    1
   25    25    26    1
   26    25    27    1
   27    27    28    1
   28    25    29    1
   29    29    30    1
   30    29    31    1
   31    31    32    1
   32     3    33    1
   33    29    33    1
   34    33    34    1
   35    33    35    1
   36    35    36    1
   37    22    37    1
   38    35    37    1
   39    35    38    1
   40    38    39    1
   41    38    40    1
   42    38    41    1
   43    41    42    1
   44    43    44    1
   45    43    45    1
   46    43    46    1
   47    46    47    1
   48    46    48    1
   49    48    49    1
   50    46    50    1
   51    50    51    1
   52    50    52    1
   53    52    53    1
   54    24    54    1
   55    50    54    1
   56    54    55    1
   57    54    56    1
   58    56    57    1
   59    43    58    1
   60    56    58    1
   61    56    59    1
   62    59    60    1
   63    59    61    1
   64    59    62    1
   65    62    63    1
   66    64    65    1
   67    64    66    1
   68    64    67    1
   69    67    68    1
   70    67    69    1
   71    69    70    1
   72    67    71    1
   73    71    72    1
   74    71    73    1
   75    73    74    1
   76    45    75    1
   77    71    75    1
   78    75    76    1
   79    75    77    1
   80    77    78    1
   81    64    79    1
   82    77    79    1
   83    77    80    1
   84    80    81    1
   85    80    82    1
   86    80    83    1
   87    83    84    1
   88    85    86    1
   89    85    87    1
   90    85    88    1
   91    88    89    1
   92    88    90    1
   93    90    91    1
   94    88    92    1
   95    92    93    1
   96    92    94    1
   97    94    95    1
   98    66    96    1
   99    92    96    1
  100    96    97    1
  101    96    98    1
  102    98    99    1
  103    85   100    1
  104    98   100    1
  105    98   101    1
  106   101   102    1
  107   101   103    1
  108   101   104    1
  109   104   105    1
  110   106   107    1
  111    12   108    1
  112   106   108    1
  113   106   109    1
  114   109   110    1
  115   109   111    1
  116   111   112    1
  117   109   113    1
  118   113   114    1
  119   113   115    1
  120   115   116    1
  121    87   117    1
  122   113   117    1
  123   117   118    1
  124   117   119    1
  125   119   120    1
  126   106   121    1
  127   119   121    1
  128   119   122    1
  129   122   123    1
  130   122   124    1
  131   122   125    1
  132   125   126    1
  133   127   128    1
  134   127   129    2
  135   127   130    1
  136   130   131    1
  137   130   132    2
  138   132   133    1
  139   132   134    1
  140   134   135    1
  141   134   136    1
  142   134   137    1
  143   137   138    1
  144   137   139    1
  145   137   140    1
  146   140   141    1
  147   140   142    1
  148   140   143    1
@<TRIPOS>SUBSTRUCTURE
       1 MOL1            1 RESIDUE      1      MOL     
       2 MOL1          143 RESIDUE      1      MOL     
@<SCITEGIC>MOL_PROPERTY
feprocess Rank
SciTegic.value.IntegerValue
174

@<SCITEGIC>MOL_PROPERTY
Conf_Id
SciTegic.value.IntegerValue
469

@<SCITEGIC>MOL_PROPERTY
Probability
SciTegic.value.DoubleValue
0.00

@<SCITEGIC>MOL_PROPERTY
G
SciTegic.value.DoubleValue
505.486

@<SCITEGIC>MOL_PROPERTY
E
SciTegic.value.DoubleValue
324.013

@<SCITEGIC>MOL_PROPERTY
-TS
SciTegic.value.DoubleValue
181.473

@<SCITEGIC>MOL_PROPERTY
U+W
SciTegic.value.DoubleValue
197.925

@<SCITEGIC>MOL_PROPERTY
U
SciTegic.value.DoubleValue
264.176

@<SCITEGIC>MOL_PROPERTY
W
SciTegic.value.DoubleValue
-66.250

@<SCITEGIC>MOL_PROPERTY
W(PB)
SciTegic.value.DoubleValue
-72.273

@<SCITEGIC>MOL_PROPERTY
W(SA)
SciTegic.value.DoubleValue
6.022

@<SCITEGIC>MOL_PROPERTY
Valence
SciTegic.value.DoubleValue
147.569

@<SCITEGIC>MOL_PROPERTY
Coulomb
SciTegic.value.DoubleValue
136.948

@<SCITEGIC>MOL_PROPERTY
VdW
SciTegic.value.DoubleValue
-20.341

@<SCITEGIC>MOL_PROPERTY
VdW6
SciTegic.value.DoubleValue
-175.705

@<SCITEGIC>MOL_PROPERTY
VdW12
SciTegic.value.DoubleValue
155.364

@<SCITEGIC>MOL_PROPERTY
Bond
SciTegic.value.DoubleValue
5.116

@<SCITEGIC>MOL_PROPERTY
Angle
SciTegic.value.DoubleValue
16.082

@<SCITEGIC>MOL_PROPERTY
Pdih
SciTegic.value.DoubleValue
126.359

@<SCITEGIC>MOL_PROPERTY
Idih
SciTegic.value.DoubleValue
0.011

@<SCITEGIC>MOL_PROPERTY
Tether
SciTegic.value.DoubleValue
0.000

@<TRIPOS>MOLECULE
CD_guest-s19_fast_vm2_rndm.mol2 : feprocess host+ligand conformer 175
         143         148           2
SMALL
USER_CHARGES
 
@<TRIPOS>ATOM
       1    C1      16.107588   15.294979   21.252413 C.3        1 MOL1         0.2972
       2    H1      15.103883   14.995687   20.923867 H          1 MOL1         0.0751
       3    O1      16.039075   16.487528   22.056171 O.3        1 MOL1        -0.3740
       4    C2      16.733564   14.158358   22.111437 C.3        1 MOL1         0.1003
       5    H2      16.638055   13.229111   21.534777 H          1 MOL1         0.0783
       6    O2      16.018225   14.019989   23.347936 O.3        1 MOL1        -0.5519
       7    H3      15.859482   14.937244   23.670602 H          1 MOL1         0.3769
       8    C3      18.242198   14.381657   22.394694 C.3        1 MOL1         0.1053
       9    H4      18.348670   15.232591   23.081834 H          1 MOL1         0.0783
      10    O3      18.793419   13.199013   22.984955 O.3        1 MOL1        -0.5519
      11    H5      18.172270   12.956302   23.706740 H          1 MOL1         0.3769
      12    C4      18.989476   14.716519   21.085222 C.3        1 MOL1         0.1018
      13    H6      18.901553   13.854878   20.410141 H          1 MOL1         0.0783
      14    C5      18.322448   15.940862   20.409640 C.3        1 MOL1         0.1043
      15    H7      18.330418   16.784447   21.111315 H          1 MOL1         0.0783
      16    O4      16.957717   15.565903   20.113550 O.3        1 MOL1        -0.3740
      17    C6      18.984647   16.418669   19.093689 C.3        1 MOL1         0.0138
      18    H8      19.846630   17.049255   19.344047 H          1 MOL1         0.0794
      19    H9      18.268719   17.054041   18.556177 H          1 MOL1         0.0794
      20    O5      19.403892   15.338339   18.253480 O.3        1 MOL1        -0.5486
      21    H10     20.284461   15.045866   18.584023 H          1 MOL1         0.3769
      22    C7      14.549587   20.268429   21.486719 C.3        1 MOL1         0.2972
      23    H11     13.996692   21.206204   21.344530 H          1 MOL1         0.0751
      24    O6      15.971389   20.477398   21.428998 O.3        1 MOL1        -0.3740
      25    C8      14.186464   19.648458   22.851756 C.3        1 MOL1         0.1003
      26    H12     13.114821   19.410855   22.833746 H          1 MOL1         0.0783
      27    O7      14.450072   20.584027   23.909454 O.3        1 MOL1        -0.5519
      28    H13     15.090923   21.243583   23.549300 H          1 MOL1         0.3769
      29    C9      14.965233   18.334797   23.081836 C.3        1 MOL1         0.1053
      30    H14     16.017741   18.600682   23.228547 H          1 MOL1         0.0783
      31    O8      14.468902   17.703424   24.266631 O.3        1 MOL1        -0.5519
      32    H15     14.454144   18.414362   24.944894 H          1 MOL1         0.3769
      33    C10     14.884990   17.351655   21.880467 C.3        1 MOL1         0.1018
      34    H16     13.954327   16.778204   21.976788 H          1 MOL1         0.0783
      35    C11     14.930602   18.054930   20.477834 C.3        1 MOL1         0.1043
      36    H17     15.982757   18.252973   20.245123 H          1 MOL1         0.0783
      37    O9      14.201512   19.311061   20.474464 O.3        1 MOL1        -0.3740
      38    C12     14.327493   17.231736   19.307919 C.3        1 MOL1         0.0138
      39    H18     15.028192   16.450217   18.997146 H          1 MOL1         0.0794
      40    H19     14.207631   17.898546   18.443197 H          1 MOL1         0.0794
      41    O10     13.066106   16.645524   19.651193 O.3        1 MOL1        -0.5486
      42    H20     12.703086   16.223831   18.841815 H          1 MOL1         0.3769
      43    C13     18.690469   23.440750   20.249302 C.3        1 MOL1         0.2972
      44    H21     19.151796   24.293683   19.735542 H          1 MOL1         0.0751
      45    O11     19.655934   22.713222   21.033870 O.3        1 MOL1        -0.3740
      46    C14     17.538950   23.912338   21.181157 C.3        1 MOL1         0.1003
      47    H22     16.814165   24.446766   20.553443 H          1 MOL1         0.0783
      48    O12     18.018784   24.802372   22.201449 O.3        1 MOL1        -0.5519
      49    H23     18.743621   24.331112   22.686120 H          1 MOL1         0.3769
      50    C15     16.810494   22.705458   21.823492 C.3        1 MOL1         0.1053
      51    H24     17.508104   22.218361   22.514328 H          1 MOL1         0.0783
      52    O13     15.658438   23.161632   22.540331 O.3        1 MOL1        -0.5519
      53    H25     15.965431   23.945860   23.047518 H          1 MOL1         0.3769
      54    C16     16.396380   21.671392   20.748506 C.3        1 MOL1         0.1018
      55    H26     15.593049   22.099839   20.134479 H          1 MOL1         0.0783
      56    C17     17.587843   21.299125   19.827324 C.3        1 MOL1         0.1043
      57    H27     18.350617   20.790049   20.430830 H          1 MOL1         0.0783
      58    O14     18.139092   22.521159   19.279891 O.3        1 MOL1        -0.3740
      59    C18     17.227797   20.347905   18.656550 C.3        1 MOL1         0.0138
      60    H28     17.371864   19.314887   18.994813 H          1 MOL1         0.0794
      61    H29     17.941738   20.513072   17.838649 H          1 MOL1         0.0794
      62    O15     15.886476   20.516472   18.179682 O.3        1 MOL1        -0.5486
      63    H30     15.279365   20.217852   18.896018 H          1 MOL1         0.3769
      64    C19     23.621078   22.771891   22.197069 C.3        1 MOL1         0.2972
      65    H31     24.651167   23.025563   22.478925 H          1 MOL1         0.0751
      66    O16     23.422263   21.348783   22.139688 O.3        1 MOL1        -0.3740
      67    C20     22.632706   23.344271   23.241071 C.3        1 MOL1         0.1003
      68    H32     22.744903   24.436283   23.243028 H          1 MOL1         0.0783
      69    O17     22.938201   22.831016   24.547318 O.3        1 MOL1        -0.5519
      70    H33     23.344289   21.940979   24.413624 H          1 MOL1         0.3769
      71    C21     21.171744   23.011978   22.856657 C.3        1 MOL1         0.1053
      72    H34     21.034294   21.926563   22.950939 H          1 MOL1         0.0783
      73    O18     20.279806   23.691171   23.747166 O.3        1 MOL1        -0.5519
      74    H35     20.621430   23.492302   24.647096 H          1 MOL1         0.3769
      75    C22     20.860770   23.417374   21.394416 C.3        1 MOL1         0.1018
      76    H36     20.728246   24.506885   21.354584 H          1 MOL1         0.0783
      77    C23     21.971733   22.975770   20.398089 C.3        1 MOL1         0.1043
      78    H37     21.900857   21.886102   20.291794 H          1 MOL1         0.0783
      79    O19     23.287815   23.320363   20.905491 O.3        1 MOL1        -0.3740
      80    C24     21.825565   23.584797   18.982911 C.3        1 MOL1         0.0138
      81    H38     20.964039   23.117079   18.487526 H          1 MOL1         0.0794
      82    H39     22.717358   23.326159   18.396239 H          1 MOL1         0.0794
      83    O20     21.651845   25.006481   19.023101 O.3        1 MOL1        -0.5486
      84    H40     21.659875   25.334399   18.097429 H          1 MOL1         0.3769
      85    C25     25.312693   17.685502   21.771152 C.3        1 MOL1         0.2972
      86    H41     26.030679   16.867265   21.631813 H          1 MOL1         0.0751
      87    O21     23.969745   17.173738   21.911284 O.3        1 MOL1        -0.3740
      88    C26     25.701063   18.505071   23.032568 C.3        1 MOL1         0.1003
      89    H42     26.707642   18.905475   22.856303 H          1 MOL1         0.0783
      90    O22     25.728886   17.683270   24.210364 O.3        1 MOL1        -0.5519
      91    H43     24.791004   17.582496   24.525461 H          1 MOL1         0.3769
      92    C27     24.742717   19.699231   23.231914 C.3        1 MOL1         0.1053
      93    H44     23.759103   19.284360   23.460402 H          1 MOL1         0.0783
      94    O23     25.184106   20.522286   24.316992 O.3        1 MOL1        -0.5519
      95    H45     25.240599   19.917150   25.089963 H          1 MOL1         0.3769
      96    C28     24.600500   20.545273   21.947551 C.3        1 MOL1         0.1018
      97    H46     25.508106   21.148568   21.815364 H          1 MOL1         0.0783
      98    C29     24.359485   19.665686   20.691612 C.3        1 MOL1         0.1043
      99    H47     23.354437   19.237385   20.791940 H          1 MOL1         0.0783
     100    O24     25.333501   18.589036   20.641536 O.3        1 MOL1        -0.3740
     101    C30     24.396073   20.432450   19.341823 C.3        1 MOL1         0.0138
     102    H48     23.375909   20.747621   19.091597 H          1 MOL1         0.0794
     103    H49     24.712299   19.738460   18.551644 H          1 MOL1         0.0794
     104    O25     25.257835   21.576056   19.357519 O.3        1 MOL1        -0.5486
     105    H50     24.786067   22.285619   19.853002 H          1 MOL1         0.3769
     106    C31     21.337782   14.195440   20.698377 C.3        1 MOL1         0.2972
     107    H51     20.871930   13.313700   20.240540 H          1 MOL1         0.0751
     108    O26     20.368502   14.997515   21.410666 O.3        1 MOL1        -0.3740
     109    C32     22.443122   13.730273   21.673122 C.3        1 MOL1         0.1003
     110    H52     23.149902   13.120526   21.095499 H          1 MOL1         0.0783
     111    O27     21.872681   12.926181   22.718051 O.3        1 MOL1        -0.5519
     112    H53     20.968151   13.284995   22.897409 H          1 MOL1         0.3769
     113    C33     23.229116   14.924275   22.263184 C.3        1 MOL1         0.1053
     114    H54     22.567300   15.430782   22.970972 H          1 MOL1         0.0783
     115    O28     24.382585   14.426859   22.948517 O.3        1 MOL1        -0.5519
     116    H55     24.030253   13.863452   23.671343 H          1 MOL1         0.3769
     117    C34     23.662621   15.957891   21.188057 C.3        1 MOL1         0.1018
     118    H56     24.540244   15.558091   20.663915 H          1 MOL1         0.0783
     119    C35     22.530677   16.256778   20.156908 C.3        1 MOL1         0.1043
     120    H57     21.759995   16.845245   20.668759 H          1 MOL1         0.0783
     121    O29     21.953078   15.014375   19.688446 O.3        1 MOL1        -0.3740
     122    C36     22.952717   17.051907   18.893481 C.3        1 MOL1         0.0138
     123    H58     22.775845   18.117765   19.068852 H          1 MOL1         0.0794
     124    H59     22.289651   16.766593   18.065565 H          1 MOL1         0.0794
     125    O30     24.315734   16.835930   18.512888 O.3        1 MOL1        -0.5486
     126    H60     24.875403   17.333723   19.153756 H          1 MOL1         0.3769
     127    C1      22.320136   17.077398   25.101933 C.2        1 MOL1         0.6173
     128    O1      23.152066   17.909073   25.416607 O.co2      1 MOL1        -0.6755
     129    O2      22.327679   15.940445   25.531391 O.co2      1 MOL1        -0.6755
     130    C2      21.298185   17.409824   24.070933 C.2        1 MOL1        -0.1504
     131    H1      20.665494   16.585360   23.751536 H          1 MOL1         0.0814
     132    C3      21.139788   18.635015   23.522691 C.2        1 MOL1        -0.1394
     133    H2      21.733159   19.482533   23.857283 H          1 MOL1         0.0817
     134    C4      20.132443   18.941115   22.439487 C.3        1 MOL1        -0.1849
     135    H3      20.203205   18.188145   21.646688 H          1 MOL1         0.0736
     136    H4      20.368313   19.905492   21.971394 H          1 MOL1         0.0736
     137    C5      18.693371   18.970015   22.985876 C.3        1 MOL1        -0.1866
     138    H5      18.008829   19.162389   22.153515 H          1 MOL1         0.0738
     139    H6      18.426310   17.983894   23.389665 H          1 MOL1         0.0738
     140    C6      18.502643   20.043605   24.078588 C.3        1 MOL1        -0.2879
     141    H7      18.870518   21.019262   23.740873 H          1 MOL1         0.0750
     142    H8      17.443601   20.148374   24.344870 H          1 MOL1         0.0750
     143    H9      19.053644   19.776113   24.989283 H          1 MOL1         0.0750
@<TRIPOS>BOND
    1     1     2    1
    2     1     3    1
    3     1     4    1
    4     4     5    1
    5     4     6    1
    6     6     7    1
    7     4     8    1
    8     8     9    1
    9     8    10    1
   10    10    11    1
   11     8    12    1
   12    12    13    1
   13    12    14    1
   14    14    15    1
   15     1    16    1
   16    14    16    1
   17    14    17    1
   18    17    18    1
   19    17    19    1
   20    17    20    1
   21    20    21    1
   22    22    23    1
   23    22    24    1
   24    22    25    1
   25    25    26    1
   26    25    27    1
   27    27    28    1
   28    25    29    1
   29    29    30    1
   30    29    31    1
   31    31    32    1
   32     3    33    1
   33    29    33    1
   34    33    34    1
   35    33    35    1
   36    35    36    1
   37    22    37    1
   38    35    37    1
   39    35    38    1
   40    38    39    1
   41    38    40    1
   42    38    41    1
   43    41    42    1
   44    43    44    1
   45    43    45    1
   46    43    46    1
   47    46    47    1
   48    46    48    1
   49    48    49    1
   50    46    50    1
   51    50    51    1
   52    50    52    1
   53    52    53    1
   54    24    54    1
   55    50    54    1
   56    54    55    1
   57    54    56    1
   58    56    57    1
   59    43    58    1
   60    56    58    1
   61    56    59    1
   62    59    60    1
   63    59    61    1
   64    59    62    1
   65    62    63    1
   66    64    65    1
   67    64    66    1
   68    64    67    1
   69    67    68    1
   70    67    69    1
   71    69    70    1
   72    67    71    1
   73    71    72    1
   74    71    73    1
   75    73    74    1
   76    45    75    1
   77    71    75    1
   78    75    76    1
   79    75    77    1
   80    77    78    1
   81    64    79    1
   82    77    79    1
   83    77    80    1
   84    80    81    1
   85    80    82    1
   86    80    83    1
   87    83    84    1
   88    85    86    1
   89    85    87    1
   90    85    88    1
   91    88    89    1
   92    88    90    1
   93    90    91    1
   94    88    92    1
   95    92    93    1
   96    92    94    1
   97    94    95    1
   98    66    96    1
   99    92    96    1
  100    96    97    1
  101    96    98    1
  102    98    99    1
  103    85   100    1
  104    98   100    1
  105    98   101    1
  106   101   102    1
  107   101   103    1
  108   101   104    1
  109   104   105    1
  110   106   107    1
  111    12   108    1
  112   106   108    1
  113   106   109    1
  114   109   110    1
  115   109   111    1
  116   111   112    1
  117   109   113    1
  118   113   114    1
  119   113   115    1
  120   115   116    1
  121    87   117    1
  122   113   117    1
  123   117   118    1
  124   117   119    1
  125   119   120    1
  126   106   121    1
  127   119   121    1
  128   119   122    1
  129   122   123    1
  130   122   124    1
  131   122   125    1
  132   125   126    1
  133   127   128    1
  134   127   129    2
  135   127   130    1
  136   130   131    1
  137   130   132    2
  138   132   133    1
  139   132   134    1
  140   134   135    1
  141   134   136    1
  142   134   137    1
  143   137   138    1
  144   137   139    1
  145   137   140    1
  146   140   141    1
  147   140   142    1
  148   140   143    1
@<TRIPOS>SUBSTRUCTURE
       1 MOL1            1 RESIDUE      1      MOL     
       2 MOL1          143 RESIDUE      1      MOL     
@<SCITEGIC>MOL_PROPERTY
feprocess Rank
SciTegic.value.IntegerValue
175

@<SCITEGIC>MOL_PROPERTY
Conf_Id
SciTegic.value.IntegerValue
907

@<SCITEGIC>MOL_PROPERTY
Probability
SciTegic.value.DoubleValue
0.00

@<SCITEGIC>MOL_PROPERTY
G
SciTegic.value.DoubleValue
505.535

@<SCITEGIC>MOL_PROPERTY
E
SciTegic.value.DoubleValue
323.333

@<SCITEGIC>MOL_PROPERTY
-TS
SciTegic.value.DoubleValue
182.202

@<SCITEGIC>MOL_PROPERTY
U+W
SciTegic.value.DoubleValue
197.245

@<SCITEGIC>MOL_PROPERTY
U
SciTegic.value.DoubleValue
277.865

@<SCITEGIC>MOL_PROPERTY
W
SciTegic.value.DoubleValue
-80.620

@<SCITEGIC>MOL_PROPERTY
W(PB)
SciTegic.value.DoubleValue
-86.576

@<SCITEGIC>MOL_PROPERTY
W(SA)
SciTegic.value.DoubleValue
5.956

@<SCITEGIC>MOL_PROPERTY
Valence
SciTegic.value.DoubleValue
151.601

@<SCITEGIC>MOL_PROPERTY
Coulomb
SciTegic.value.DoubleValue
152.829

@<SCITEGIC>MOL_PROPERTY
VdW
SciTegic.value.DoubleValue
-26.565

@<SCITEGIC>MOL_PROPERTY
VdW6
SciTegic.value.DoubleValue
-181.056

@<SCITEGIC>MOL_PROPERTY
VdW12
SciTegic.value.DoubleValue
154.491

@<SCITEGIC>MOL_PROPERTY
Bond
SciTegic.value.DoubleValue
5.017

@<SCITEGIC>MOL_PROPERTY
Angle
SciTegic.value.DoubleValue
15.173

@<SCITEGIC>MOL_PROPERTY
Pdih
SciTegic.value.DoubleValue
131.395

@<SCITEGIC>MOL_PROPERTY
Idih
SciTegic.value.DoubleValue
0.016

@<SCITEGIC>MOL_PROPERTY
Tether
SciTegic.value.DoubleValue
0.000

@<TRIPOS>MOLECULE
CD_guest-s19_fast_vm2_rndm.mol2 : feprocess host+ligand conformer 176
         143         148           2
SMALL
USER_CHARGES
 
@<TRIPOS>ATOM
       1    C1      16.540252   15.666238   20.849664 C.3        1 MOL1         0.2972
       2    H1      15.539699   15.483420   20.436890 H          1 MOL1         0.0751
       3    O1      16.675293   17.034089   21.275878 O.3        1 MOL1        -0.3740
       4    C2      16.787357   14.704530   22.046226 C.3        1 MOL1         0.1003
       5    H2      16.676049   13.684998   21.655226 H          1 MOL1         0.0783
       6    O2      15.823722   14.894474   23.091859 O.3        1 MOL1        -0.5519
       7    H3      15.912151   15.834622   23.414912 H          1 MOL1         0.3769
       8    C3      18.225061   14.832898   22.599672 C.3        1 MOL1         0.1053
       9    H4      18.339662   15.827169   23.049677 H          1 MOL1         0.0783
      10    O3      18.451142   13.821662   23.587709 O.3        1 MOL1        -0.5519
      11    H5      17.653619   13.849574   24.162815 H          1 MOL1         0.3769
      12    C4      19.242975   14.685453   21.445984 C.3        1 MOL1         0.1018
      13    H6      19.190207   13.658029   21.061122 H          1 MOL1         0.0783
      14    C5      18.925560   15.657726   20.283449 C.3        1 MOL1         0.1043
      15    H7      19.031024   16.678794   20.667376 H          1 MOL1         0.0783
      16    O4      17.558671   15.437059   19.845425 O.3        1 MOL1        -0.3740
      17    C6      19.868421   15.518267   19.059295 C.3        1 MOL1         0.0138
      18    H8      20.746964   16.152580   19.224669 H          1 MOL1         0.0794
      19    H9      19.357865   15.913033   18.171122 H          1 MOL1         0.0794
      20    O5      20.287164   14.168636   18.821068 O.3        1 MOL1        -0.5486
      21    H10     20.897724   13.914586   19.551707 H          1 MOL1         0.3769
      22    C7      14.800236   20.730367   20.510665 C.3        1 MOL1         0.2972
      23    H11     14.235628   21.528815   20.013898 H          1 MOL1         0.0751
      24    O6      15.354149   21.192311   21.756759 O.3        1 MOL1        -0.3740
      25    C8      13.854132   19.536448   20.803327 C.3        1 MOL1         0.1003
      26    H12     13.397485   19.247658   19.847688 H          1 MOL1         0.0783
      27    O7      12.822111   19.934999   21.717372 O.3        1 MOL1        -0.5519
      28    H13     13.283969   20.378028   22.464916 H          1 MOL1         0.3769
      29    C9      14.605496   18.299329   21.359005 C.3        1 MOL1         0.1053
      30    H14     14.913421   18.514910   22.391158 H          1 MOL1         0.0783
      31    O8      13.711915   17.180992   21.330301 O.3        1 MOL1        -0.5519
      32    H15     12.925200   17.460397   21.846134 H          1 MOL1         0.3769
      33    C10     15.878634   17.981461   20.534452 C.3        1 MOL1         0.1018
      34    H16     15.574239   17.576425   19.560242 H          1 MOL1         0.0783
      35    C11     16.732455   19.252782   20.296370 C.3        1 MOL1         0.1043
      36    H17     17.098839   19.614953   21.265663 H          1 MOL1         0.0783
      37    O9      15.887121   20.255331   19.683361 O.3        1 MOL1        -0.3740
      38    C12     17.970927   19.038241   19.391509 C.3        1 MOL1         0.0138
      39    H18     18.802460   18.696095   20.019088 H          1 MOL1         0.0794
      40    H19     18.268909   20.005810   18.970652 H          1 MOL1         0.0794
      41    O10     17.737391   18.101690   18.333566 O.3        1 MOL1        -0.5486
      42    H20     17.547984   17.228224   18.747762 H          1 MOL1         0.3769
      43    C13     18.371457   24.041381   22.232387 C.3        1 MOL1         0.2972
      44    H21     18.957805   24.954219   22.400538 H          1 MOL1         0.0751
      45    O11     19.224260   22.906908   21.988380 O.3        1 MOL1        -0.3740
      46    C14     17.487276   23.771807   23.467479 C.3        1 MOL1         0.1003
      47    H22     16.841677   24.649151   23.603857 H          1 MOL1         0.0783
      48    O12     18.303694   23.597715   24.637250 O.3        1 MOL1        -0.5519
      49    H23     19.230335   23.461741   24.321050 H          1 MOL1         0.3769
      50    C15     16.577718   22.542862   23.254471 C.3        1 MOL1         0.1053
      51    H24     17.221040   21.653076   23.261262 H          1 MOL1         0.0783
      52    O13     15.647003   22.477884   24.340032 O.3        1 MOL1        -0.5519
      53    H25     16.196558   22.525805   25.152320 H          1 MOL1         0.3769
      54    C16     15.818666   22.563935   21.897722 C.3        1 MOL1         0.1018
      55    H26     14.963281   23.245176   21.987219 H          1 MOL1         0.0783
      56    C17     16.730364   23.036155   20.708868 C.3        1 MOL1         0.1043
      57    H27     17.409182   22.213648   20.457343 H          1 MOL1         0.0783
      58    O14     17.511981   24.196701   21.092403 O.3        1 MOL1        -0.3740
      59    C18     15.988262   23.464366   19.412866 C.3        1 MOL1         0.0138
      60    H28     15.728992   22.579987   18.820207 H          1 MOL1         0.0794
      61    H29     16.681926   24.050880   18.795123 H          1 MOL1         0.0794
      62    O15     14.811584   24.233496   19.687417 O.3        1 MOL1        -0.5486
      63    H30     14.455929   24.552549   18.829265 H          1 MOL1         0.3769
      64    C19     23.248312   22.282104   20.966400 C.3        1 MOL1         0.2972
      65    H31     24.270352   22.452438   20.603342 H          1 MOL1         0.0751
      66    O16     23.040182   20.904602   21.323698 O.3        1 MOL1        -0.3740
      67    C20     22.985984   23.158860   22.218773 C.3        1 MOL1         0.1003
      68    H32     23.140804   24.204706   21.923289 H          1 MOL1         0.0783
      69    O17     23.901069   22.827974   23.275685 O.3        1 MOL1        -0.5519
      70    H33     24.417236   22.040878   22.971991 H          1 MOL1         0.3769
      71    C21     21.525765   23.010042   22.704214 C.3        1 MOL1         0.1053
      72    H34     21.389517   21.983732   23.068145 H          1 MOL1         0.0783
      73    O18     21.273028   23.940023   23.762635 O.3        1 MOL1        -0.5519
      74    H35     22.048818   23.854464   24.361073 H          1 MOL1         0.3769
      75    C22     20.546055   23.253270   21.532866 C.3        1 MOL1         0.1018
      76    H36     20.613221   24.309401   21.239214 H          1 MOL1         0.0783
      77    C23     20.894201   22.379304   20.299076 C.3        1 MOL1         0.1043
      78    H37     20.753070   21.326305   20.572258 H          1 MOL1         0.0783
      79    O19     22.281631   22.607256   19.942076 O.3        1 MOL1        -0.3740
      80    C24     20.016539   22.656518   19.051001 C.3        1 MOL1         0.0138
      81    H38     19.107652   22.049305   19.121863 H          1 MOL1         0.0794
      82    H39     20.556559   22.314526   18.157876 H          1 MOL1         0.0794
      83    O20     19.656404   24.036207   18.910688 O.3        1 MOL1        -0.5486
      84    H40     19.001369   24.241556   19.617546 H          1 MOL1         0.3769
      85    C25     25.076641   17.257357   20.861694 C.3        1 MOL1         0.2972
      86    H41     25.742343   16.479979   20.467583 H          1 MOL1         0.0751
      87    O21     24.299029   16.764712   21.969283 O.3        1 MOL1        -0.3740
      88    C26     25.917861   18.453230   21.382936 C.3        1 MOL1         0.1003
      89    H42     26.533100   18.813958   20.548302 H          1 MOL1         0.0783
      90    O22     26.770934   18.030321   22.456397 O.3        1 MOL1        -0.5519
      91    H43     26.194635   17.526378   23.075167 H          1 MOL1         0.3769
      92    C27     25.013661   19.618746   21.854223 C.3        1 MOL1         0.1053
      93    H44     24.463822   19.292362   22.748174 H          1 MOL1         0.0783
      94    O23     25.824506   20.755994   22.168823 O.3        1 MOL1        -0.5519
      95    H45     26.576295   20.399341   22.693037 H          1 MOL1         0.3769
      96    C28     23.983507   19.979219   20.759253 C.3        1 MOL1         0.1018
      97    H46     24.512233   20.410359   19.898463 H          1 MOL1         0.0783
      98    C29     23.204533   18.726271   20.286787 C.3        1 MOL1         0.1043
      99    H47     22.636722   18.324545   21.135073 H          1 MOL1         0.0783
     100    O24     24.167773   17.740288   19.842062 O.3        1 MOL1        -0.3740
     101    C30     22.187882   19.000651   19.148138 C.3        1 MOL1         0.0138
     102    H48     21.232715   19.292937   19.602578 H          1 MOL1         0.0794
     103    H49     22.009999   18.065746   18.601114 H          1 MOL1         0.0794
     104    O25     22.617551   20.024594   18.242583 O.3        1 MOL1        -0.5486
     105    H50     22.612418   20.876829   18.736744 H          1 MOL1         0.3769
     106    C31     21.384249   13.841609   22.178427 C.3        1 MOL1         0.2972
     107    H51     20.786366   12.925159   22.268694 H          1 MOL1         0.0751
     108    O26     20.551519   14.996750   21.960793 O.3        1 MOL1        -0.3740
     109    C32     22.215826   14.036764   23.462005 C.3        1 MOL1         0.1003
     110    H52     22.880013   13.168180   23.559993 H          1 MOL1         0.0783
     111    O27     21.357065   14.110063   24.611469 O.3        1 MOL1        -0.5519
     112    H53     20.443316   14.282751   24.275650 H          1 MOL1         0.3769
     113    C33     23.093880   15.300353   23.359154 C.3        1 MOL1         0.1053
     114    H54     22.420966   16.167947   23.377056 H          1 MOL1         0.0783
     115    O28     23.966789   15.343561   24.492712 O.3        1 MOL1        -0.5519
     116    H55     23.381913   15.187706   25.266885 H          1 MOL1         0.3769
     117    C34     23.919917   15.366692   22.043877 C.3        1 MOL1         0.1018
     118    H56     24.806591   14.731906   22.160606 H          1 MOL1         0.0783
     119    C35     23.106488   14.911084   20.782581 C.3        1 MOL1         0.1043
     120    H57     22.449482   15.739126   20.493265 H          1 MOL1         0.0783
     121    O29     22.296819   13.742295   21.073334 O.3        1 MOL1        -0.3740
     122    C36     23.958704   14.515725   19.545428 C.3        1 MOL1         0.0138
     123    H58     24.376957   15.408366   19.068269 H          1 MOL1         0.0794
     124    H59     23.288973   14.061001   18.803094 H          1 MOL1         0.0794
     125    O30     25.007247   13.593368   19.869740 O.3        1 MOL1        -0.5486
     126    H60     25.693641   14.069918   20.381134 H          1 MOL1         0.3769
     127    C1      16.345866   18.393450   24.962432 C.2        1 MOL1         0.6173
     128    O1      15.633723   18.787268   25.865866 O.co2      1 MOL1        -0.6755
     129    O2      16.142952   17.356450   24.358345 O.co2      1 MOL1        -0.6755
     130    C2      17.527230   19.225662   24.607822 C.2        1 MOL1        -0.1504
     131    H1      17.669481   20.125010   25.201883 H          1 MOL1         0.0814
     132    C3      18.397567   18.910040   23.622806 C.2        1 MOL1        -0.1394
     133    H2      18.260412   18.010737   23.030272 H          1 MOL1         0.0817
     134    C4      19.616387   19.731866   23.272220 C.3        1 MOL1        -0.1849
     135    H3      19.676970   20.618610   23.917106 H          1 MOL1         0.0736
     136    H4      19.519940   20.101529   22.244393 H          1 MOL1         0.0736
     137    C5      20.916016   18.908258   23.399353 C.3        1 MOL1        -0.1866
     138    H5      20.867091   18.032072   22.738799 H          1 MOL1         0.0738
     139    H6      21.761448   19.518397   23.062628 H          1 MOL1         0.0738
     140    C6      21.187631   18.451088   24.847457 C.3        1 MOL1        -0.2879
     141    H7      20.411971   17.755836   25.194085 H          1 MOL1         0.0750
     142    H8      22.156095   17.940275   24.918215 H          1 MOL1         0.0750
     143    H9      21.208626   19.309804   25.530622 H          1 MOL1         0.0750
@<TRIPOS>BOND
    1     1     2    1
    2     1     3    1
    3     1     4    1
    4     4     5    1
    5     4     6    1
    6     6     7    1
    7     4     8    1
    8     8     9    1
    9     8    10    1
   10    10    11    1
   11     8    12    1
   12    12    13    1
   13    12    14    1
   14    14    15    1
   15     1    16    1
   16    14    16    1
   17    14    17    1
   18    17    18    1
   19    17    19    1
   20    17    20    1
   21    20    21    1
   22    22    23    1
   23    22    24    1
   24    22    25    1
   25    25    26    1
   26    25    27    1
   27    27    28    1
   28    25    29    1
   29    29    30    1
   30    29    31    1
   31    31    32    1
   32     3    33    1
   33    29    33    1
   34    33    34    1
   35    33    35    1
   36    35    36    1
   37    22    37    1
   38    35    37    1
   39    35    38    1
   40    38    39    1
   41    38    40    1
   42    38    41    1
   43    41    42    1
   44    43    44    1
   45    43    45    1
   46    43    46    1
   47    46    47    1
   48    46    48    1
   49    48    49    1
   50    46    50    1
   51    50    51    1
   52    50    52    1
   53    52    53    1
   54    24    54    1
   55    50    54    1
   56    54    55    1
   57    54    56    1
   58    56    57    1
   59    43    58    1
   60    56    58    1
   61    56    59    1
   62    59    60    1
   63    59    61    1
   64    59    62    1
   65    62    63    1
   66    64    65    1
   67    64    66    1
   68    64    67    1
   69    67    68    1
   70    67    69    1
   71    69    70    1
   72    67    71    1
   73    71    72    1
   74    71    73    1
   75    73    74    1
   76    45    75    1
   77    71    75    1
   78    75    76    1
   79    75    77    1
   80    77    78    1
   81    64    79    1
   82    77    79    1
   83    77    80    1
   84    80    81    1
   85    80    82    1
   86    80    83    1
   87    83    84    1
   88    85    86    1
   89    85    87    1
   90    85    88    1
   91    88    89    1
   92    88    90    1
   93    90    91    1
   94    88    92    1
   95    92    93    1
   96    92    94    1
   97    94    95    1
   98    66    96    1
   99    92    96    1
  100    96    97    1
  101    96    98    1
  102    98    99    1
  103    85   100    1
  104    98   100    1
  105    98   101    1
  106   101   102    1
  107   101   103    1
  108   101   104    1
  109   104   105    1
  110   106   107    1
  111    12   108    1
  112   106   108    1
  113   106   109    1
  114   109   110    1
  115   109   111    1
  116   111   112    1
  117   109   113    1
  118   113   114    1
  119   113   115    1
  120   115   116    1
  121    87   117    1
  122   113   117    1
  123   117   118    1
  124   117   119    1
  125   119   120    1
  126   106   121    1
  127   119   121    1
  128   119   122    1
  129   122   123    1
  130   122   124    1
  131   122   125    1
  132   125   126    1
  133   127   128    1
  134   127   129    2
  135   127   130    1
  136   130   131    1
  137   130   132    2
  138   132   133    1
  139   132   134    1
  140   134   135    1
  141   134   136    1
  142   134   137    1
  143   137   138    1
  144   137   139    1
  145   137   140    1
  146   140   141    1
  147   140   142    1
  148   140   143    1
@<TRIPOS>SUBSTRUCTURE
       1 MOL1            1 RESIDUE      1      MOL     
       2 MOL1          143 RESIDUE      1      MOL     
@<SCITEGIC>MOL_PROPERTY
feprocess Rank
SciTegic.value.IntegerValue
176

@<SCITEGIC>MOL_PROPERTY
Conf_Id
SciTegic.value.IntegerValue
416

@<SCITEGIC>MOL_PROPERTY
Probability
SciTegic.value.DoubleValue
0.00

@<SCITEGIC>MOL_PROPERTY
G
SciTegic.value.DoubleValue
505.593

@<SCITEGIC>MOL_PROPERTY
E
SciTegic.value.DoubleValue
324.383

@<SCITEGIC>MOL_PROPERTY
-TS
SciTegic.value.DoubleValue
181.210

@<SCITEGIC>MOL_PROPERTY
U+W
SciTegic.value.DoubleValue
198.295

@<SCITEGIC>MOL_PROPERTY
U
SciTegic.value.DoubleValue
280.786

@<SCITEGIC>MOL_PROPERTY
W
SciTegic.value.DoubleValue
-82.487

@<SCITEGIC>MOL_PROPERTY
W(PB)
SciTegic.value.DoubleValue
-88.395

@<SCITEGIC>MOL_PROPERTY
W(SA)
SciTegic.value.DoubleValue
5.908

@<SCITEGIC>MOL_PROPERTY
Valence
SciTegic.value.DoubleValue
148.542

@<SCITEGIC>MOL_PROPERTY
Coulomb
SciTegic.value.DoubleValue
158.498

@<SCITEGIC>MOL_PROPERTY
VdW
SciTegic.value.DoubleValue
-26.254

@<SCITEGIC>MOL_PROPERTY
VdW6
SciTegic.value.DoubleValue
-180.654

@<SCITEGIC>MOL_PROPERTY
VdW12
SciTegic.value.DoubleValue
154.400

@<SCITEGIC>MOL_PROPERTY
Bond
SciTegic.value.DoubleValue
5.102

@<SCITEGIC>MOL_PROPERTY
Angle
SciTegic.value.DoubleValue
16.600

@<SCITEGIC>MOL_PROPERTY
Pdih
SciTegic.value.DoubleValue
126.839

@<SCITEGIC>MOL_PROPERTY
Idih
SciTegic.value.DoubleValue
0.001

@<SCITEGIC>MOL_PROPERTY
Tether
SciTegic.value.DoubleValue
0.000

@<TRIPOS>MOLECULE
CD_guest-s19_fast_vm2_rndm.mol2 : feprocess host+ligand conformer 177
         143         148           2
SMALL
USER_CHARGES
 
@<TRIPOS>ATOM
       1    C1      16.219117   14.969041   21.435975 C.3        1 MOL1         0.2972
       2    H1      15.128474   15.017830   21.319513 H          1 MOL1         0.0751
       3    O1      16.801456   16.286827   21.409500 O.3        1 MOL1        -0.3740
       4    C2      16.549154   14.291041   22.789551 C.3        1 MOL1         0.1003
       5    H2      16.073819   13.301557   22.776806 H          1 MOL1         0.0783
       6    O2      16.005343   15.050996   23.880140 O.3        1 MOL1        -0.5519
       7    H3      15.733670   15.926219   23.511182 H          1 MOL1         0.3769
       8    C3      18.071189   14.077824   22.967177 C.3        1 MOL1         0.1053
       9    H4      18.529541   15.066899   23.073063 H          1 MOL1         0.0783
      10    O3      18.284039   13.300217   24.148786 O.3        1 MOL1        -0.5519
      11    H5      17.773812   13.763247   24.849223 H          1 MOL1         0.3769
      12    C4      18.645820   13.346368   21.720820 C.3        1 MOL1         0.1018
      13    H6      18.168528   12.358405   21.709651 H          1 MOL1         0.0783
      14    C5      18.247392   14.065181   20.397934 C.3        1 MOL1         0.1043
      15    H7      18.706913   15.060294   20.384911 H          1 MOL1         0.0783
      16    O4      16.804742   14.206433   20.357794 O.3        1 MOL1        -0.3740
      17    C6      18.685830   13.320443   19.111557 C.3        1 MOL1         0.0138
      18    H8      19.766715   13.449875   18.972907 H          1 MOL1         0.0794
      19    H9      18.195752   13.792464   18.249476 H          1 MOL1         0.0794
      20    O5      18.368802   11.924295   19.153355 O.3        1 MOL1        -0.5486
      21    H10     18.930558   11.514778   19.846758 H          1 MOL1         0.3769
      22    C7      15.566407   20.106642   20.125401 C.3        1 MOL1         0.2972
      23    H11     15.018096   20.891376   19.588827 H          1 MOL1         0.0751
      24    O6      16.698709   20.649921   20.833283 O.3        1 MOL1        -0.3740
      25    C8      14.634678   19.381120   21.137451 C.3        1 MOL1         0.1003
      26    H12     13.793031   18.973756   20.562338 H          1 MOL1         0.0783
      27    O7      14.121496   20.283697   22.129465 O.3        1 MOL1        -0.5519
      28    H13     14.897518   20.726708   22.558360 H          1 MOL1         0.3769
      29    C9      15.361697   18.192047   21.812642 C.3        1 MOL1         0.1053
      30    H14     16.167824   18.590309   22.439801 H          1 MOL1         0.0783
      31    O8      14.436386   17.454637   22.618738 O.3        1 MOL1        -0.5519
      32    H15     13.930462   18.135238   23.116199 H          1 MOL1         0.3769
      33    C10     15.984564   17.268150   20.740316 C.3        1 MOL1         0.1018
      34    H16     15.166673   16.798595   20.177509 H          1 MOL1         0.0783
      35    C11     16.864366   18.060731   19.740589 C.3        1 MOL1         0.1043
      36    H17     17.722056   18.484059   20.279495 H          1 MOL1         0.0783
      37    O9      16.064923   19.131508   19.182205 O.3        1 MOL1        -0.3740
      38    C12     17.416340   17.203954   18.571696 C.3        1 MOL1         0.0138
      39    H18     18.324526   16.694625   18.911199 H          1 MOL1         0.0794
      40    H19     17.714505   17.874966   17.755330 H          1 MOL1         0.0794
      41    O10     16.478707   16.230043   18.095015 O.3        1 MOL1        -0.5486
      42    H20     16.440115   15.510660   18.767425 H          1 MOL1         0.3769
      43    C13     18.524058   24.256291   21.722153 C.3        1 MOL1         0.2972
      44    H21     18.804656   25.298793   21.918415 H          1 MOL1         0.0751
      45    O11     19.665285   23.379597   21.713538 O.3        1 MOL1        -0.3740
      46    C14     17.544309   23.746345   22.806875 C.3        1 MOL1         0.1003
      47    H22     16.625932   24.343225   22.732917 H          1 MOL1         0.0783
      48    O12     18.101325   23.900817   24.121310 O.3        1 MOL1        -0.5519
      49    H23     19.080393   23.781609   24.043396 H          1 MOL1         0.3769
      50    C15     17.176424   22.268156   22.542406 C.3        1 MOL1         0.1053
      51    H24     18.086200   21.666862   22.665303 H          1 MOL1         0.0783
      52    O13     16.184285   21.850654   23.485563 O.3        1 MOL1        -0.5519
      53    H25     16.522690   22.156024   24.356708 H          1 MOL1         0.3769
      54    C16     16.653205   22.068455   21.098088 C.3        1 MOL1         0.1018
      55    H26     15.628431   22.460593   21.049478 H          1 MOL1         0.0783
      56    C17     17.541709   22.775986   20.031576 C.3        1 MOL1         0.1043
      57    H27     18.472435   22.201806   19.934576 H          1 MOL1         0.0783
      58    O14     17.861602   24.130529   20.446843 O.3        1 MOL1        -0.3740
      59    C18     16.898369   22.841002   18.625440 C.3        1 MOL1         0.0138
      60    H28     16.896736   21.830679   18.194436 H          1 MOL1         0.0794
      61    H29     17.528913   23.468250   17.981126 H          1 MOL1         0.0794
      62    O15     15.561385   23.355415   18.665634 O.3        1 MOL1        -0.5486
      63    H30     15.251670   23.453405   17.738770 H          1 MOL1         0.3769
      64    C19     23.747449   22.998317   21.744089 C.3        1 MOL1         0.2972
      65    H31     24.839933   23.103149   21.720774 H          1 MOL1         0.0751
      66    O16     23.350614   21.613048   21.802110 O.3        1 MOL1        -0.3740
      67    C20     23.168535   23.746986   22.970645 C.3        1 MOL1         0.1003
      68    H32     23.349607   24.817550   22.810433 H          1 MOL1         0.0783
      69    O17     23.830835   23.354383   24.183105 O.3        1 MOL1        -0.5519
      70    H33     23.568162   22.420151   24.400028 H          1 MOL1         0.3769
      71    C21     21.637009   23.533238   23.033771 C.3        1 MOL1         0.1053
      72    H34     21.442680   22.459350   23.142696 H          1 MOL1         0.0783
      73    O18     21.063328   24.229103   24.144759 O.3        1 MOL1        -0.5519
      74    H35     21.294682   23.671432   24.934961 H          1 MOL1         0.3769
      75    C22     20.969911   23.984072   21.712957 C.3        1 MOL1         0.1018
      76    H36     20.931183   25.080270   21.680219 H          1 MOL1         0.0783
      77    C23     21.700920   23.430220   20.457154 C.3        1 MOL1         0.1043
      78    H37     21.460758   22.364007   20.401707 H          1 MOL1         0.0783
      79    O19     23.143301   23.577105   20.564876 O.3        1 MOL1        -0.3740
      80    C24     21.231420   24.067265   19.126250 C.3        1 MOL1         0.0138
      81    H38     20.215285   23.714810   18.905189 H          1 MOL1         0.0794
      82    H39     21.880977   23.705361   18.318166 H          1 MOL1         0.0794
      83    O20     21.249764   25.498886   19.164582 O.3        1 MOL1        -0.5486
      84    H40     20.426583   25.794228   19.608882 H          1 MOL1         0.3769
      85    C25     24.799924   17.759754   21.178758 C.3        1 MOL1         0.2972
      86    H41     25.360480   16.895389   20.800843 H          1 MOL1         0.0751
      87    O21     23.743455   17.327304   22.067146 O.3        1 MOL1        -0.3740
      88    C26     25.762605   18.708660   21.937881 C.3        1 MOL1         0.1003
      89    H42     26.572185   18.968616   21.243488 H          1 MOL1         0.0783
      90    O22     26.319040   18.044205   23.081319 O.3        1 MOL1        -0.5519
      91    H43     25.563750   17.602799   23.529307 H          1 MOL1         0.3769
      92    C27     25.071885   20.025841   22.368745 C.3        1 MOL1         0.1053
      93    H44     24.374733   19.794926   23.185666 H          1 MOL1         0.0783
      94    O23     26.074920   20.941681   22.820007 O.3        1 MOL1        -0.5519
      95    H45     26.550821   20.474412   23.540169 H          1 MOL1         0.3769
      96    C28     24.260822   20.664999   21.212788 C.3        1 MOL1         0.1018
      97    H46     24.953202   21.141302   20.506224 H          1 MOL1         0.0783
      98    C29     23.393267   19.620486   20.463190 C.3        1 MOL1         0.1043
      99    H47     22.618408   19.289062   21.162226 H          1 MOL1         0.0783
     100    O24     24.210841   18.490185   20.081249 O.3        1 MOL1        -0.3740
     101    C30     22.677750   20.150665   19.192886 C.3        1 MOL1         0.0138
     102    H48     21.678262   20.501885   19.475253 H          1 MOL1         0.0794
     103    H49     22.526075   19.312716   18.499678 H          1 MOL1         0.0794
     104    O25     23.397908   21.200569   18.534439 O.3        1 MOL1        -0.5486
     105    H50     23.435507   21.968698   19.150026 H          1 MOL1         0.3769
     106    C31     21.020230   14.202556   21.537252 C.3        1 MOL1         0.2972
     107    H51     20.965304   14.467816   20.475941 H          1 MOL1         0.0751
     108    O26     20.085304   13.128517   21.808662 O.3        1 MOL1        -0.3740
     109    C32     22.463374   13.730900   21.867195 C.3        1 MOL1         0.1003
     110    H52     22.830484   13.199503   20.979435 H          1 MOL1         0.0783
     111    O27     22.478358   12.843831   22.995501 O.3        1 MOL1        -0.5519
     112    H53     21.569209   12.465145   23.034953 H          1 MOL1         0.3769
     113    C33     23.416479   14.923629   22.162900 C.3        1 MOL1         0.1053
     114    H54     23.439814   15.070584   23.251782 H          1 MOL1         0.0783
     115    O28     24.729819   14.595867   21.696196 O.3        1 MOL1        -0.5519
     116    H55     24.997049   13.787656   22.185062 H          1 MOL1         0.3769
     117    C34     22.919410   16.258337   21.542912 C.3        1 MOL1         0.1018
     118    H56     23.014794   16.185391   20.452756 H          1 MOL1         0.0783
     119    C35     21.434532   16.560196   21.929471 C.3        1 MOL1         0.1043
     120    H57     21.443373   17.224677   22.802287 H          1 MOL1         0.0783
     121    O29     20.734962   15.360799   22.330769 O.3        1 MOL1        -0.3740
     122    C36     20.591169   17.260392   20.829067 C.3        1 MOL1         0.0138
     123    H58     20.805162   18.334490   20.830215 H          1 MOL1         0.0794
     124    H59     19.532723   17.158141   21.103016 H          1 MOL1         0.0794
     125    O30     20.801748   16.717643   19.519555 O.3        1 MOL1        -0.5486
     126    H60     21.642476   17.081727   19.170208 H          1 MOL1         0.3769
     127    C1      21.867396   20.944181   25.248540 C.2        1 MOL1         0.6173
     128    O1      23.069787   20.806803   25.139745 O.co2      1 MOL1        -0.6755
     129    O2      21.361156   21.916783   25.777659 O.co2      1 MOL1        -0.6755
     130    C2      21.007856   19.943826   24.562740 C.2        1 MOL1        -0.1504
     131    H1      21.535048   19.133519   24.067519 H          1 MOL1         0.0814
     132    C3      19.657813   20.005992   24.526516 C.2        1 MOL1        -0.1394
     133    H2      19.123419   20.817301   25.020104 H          1 MOL1         0.0817
     134    C4      18.791000   18.994085   23.808153 C.3        1 MOL1        -0.1849
     135    H3      19.365456   18.481740   23.030829 H          1 MOL1         0.0736
     136    H4      17.983666   19.521953   23.290199 H          1 MOL1         0.0736
     137    C5      18.168222   17.952499   24.760414 C.3        1 MOL1        -0.1866
     138    H5      17.591274   18.464816   25.542281 H          1 MOL1         0.0738
     139    H6      17.455438   17.338735   24.195838 H          1 MOL1         0.0738
     140    C6      19.219687   17.027641   25.408648 C.3        1 MOL1        -0.2879
     141    H7      19.913644   17.598423   26.038609 H          1 MOL1         0.0750
     142    H8      18.731583   16.274304   26.039867 H          1 MOL1         0.0750
     143    H9      19.804399   16.499708   24.645682 H          1 MOL1         0.0750
@<TRIPOS>BOND
    1     1     2    1
    2     1     3    1
    3     1     4    1
    4     4     5    1
    5     4     6    1
    6     6     7    1
    7     4     8    1
    8     8     9    1
    9     8    10    1
   10    10    11    1
   11     8    12    1
   12    12    13    1
   13    12    14    1
   14    14    15    1
   15     1    16    1
   16    14    16    1
   17    14    17    1
   18    17    18    1
   19    17    19    1
   20    17    20    1
   21    20    21    1
   22    22    23    1
   23    22    24    1
   24    22    25    1
   25    25    26    1
   26    25    27    1
   27    27    28    1
   28    25    29    1
   29    29    30    1
   30    29    31    1
   31    31    32    1
   32     3    33    1
   33    29    33    1
   34    33    34    1
   35    33    35    1
   36    35    36    1
   37    22    37    1
   38    35    37    1
   39    35    38    1
   40    38    39    1
   41    38    40    1
   42    38    41    1
   43    41    42    1
   44    43    44    1
   45    43    45    1
   46    43    46    1
   47    46    47    1
   48    46    48    1
   49    48    49    1
   50    46    50    1
   51    50    51    1
   52    50    52    1
   53    52    53    1
   54    24    54    1
   55    50    54    1
   56    54    55    1
   57    54    56    1
   58    56    57    1
   59    43    58    1
   60    56    58    1
   61    56    59    1
   62    59    60    1
   63    59    61    1
   64    59    62    1
   65    62    63    1
   66    64    65    1
   67    64    66    1
   68    64    67    1
   69    67    68    1
   70    67    69    1
   71    69    70    1
   72    67    71    1
   73    71    72    1
   74    71    73    1
   75    73    74    1
   76    45    75    1
   77    71    75    1
   78    75    76    1
   79    75    77    1
   80    77    78    1
   81    64    79    1
   82    77    79    1
   83    77    80    1
   84    80    81    1
   85    80    82    1
   86    80    83    1
   87    83    84    1
   88    85    86    1
   89    85    87    1
   90    85    88    1
   91    88    89    1
   92    88    90    1
   93    90    91    1
   94    88    92    1
   95    92    93    1
   96    92    94    1
   97    94    95    1
   98    66    96    1
   99    92    96    1
  100    96    97    1
  101    96    98    1
  102    98    99    1
  103    85   100    1
  104    98   100    1
  105    98   101    1
  106   101   102    1
  107   101   103    1
  108   101   104    1
  109   104   105    1
  110   106   107    1
  111    12   108    1
  112   106   108    1
  113   106   109    1
  114   109   110    1
  115   109   111    1
  116   111   112    1
  117   109   113    1
  118   113   114    1
  119   113   115    1
  120   115   116    1
  121    87   117    1
  122   113   117    1
  123   117   118    1
  124   117   119    1
  125   119   120    1
  126   106   121    1
  127   119   121    1
  128   119   122    1
  129   122   123    1
  130   122   124    1
  131   122   125    1
  132   125   126    1
  133   127   128    1
  134   127   129    2
  135   127   130    1
  136   130   131    1
  137   130   132    2
  138   132   133    1
  139   132   134    1
  140   134   135    1
  141   134   136    1
  142   134   137    1
  143   137   138    1
  144   137   139    1
  145   137   140    1
  146   140   141    1
  147   140   142    1
  148   140   143    1
@<TRIPOS>SUBSTRUCTURE
       1 MOL1            1 RESIDUE      1      MOL     
       2 MOL1          143 RESIDUE      1      MOL     
@<SCITEGIC>MOL_PROPERTY
feprocess Rank
SciTegic.value.IntegerValue
177

@<SCITEGIC>MOL_PROPERTY
Conf_Id
SciTegic.value.IntegerValue
56

@<SCITEGIC>MOL_PROPERTY
Probability
SciTegic.value.DoubleValue
0.00

@<SCITEGIC>MOL_PROPERTY
G
SciTegic.value.DoubleValue
505.937

@<SCITEGIC>MOL_PROPERTY
E
SciTegic.value.DoubleValue
324.929

@<SCITEGIC>MOL_PROPERTY
-TS
SciTegic.value.DoubleValue
181.008

@<SCITEGIC>MOL_PROPERTY
U+W
SciTegic.value.DoubleValue
198.841

@<SCITEGIC>MOL_PROPERTY
U
SciTegic.value.DoubleValue
277.022

@<SCITEGIC>MOL_PROPERTY
W
SciTegic.value.DoubleValue
-78.181

@<SCITEGIC>MOL_PROPERTY
W(PB)
SciTegic.value.DoubleValue
-84.177

@<SCITEGIC>MOL_PROPERTY
W(SA)
SciTegic.value.DoubleValue
5.996

@<SCITEGIC>MOL_PROPERTY
Valence
SciTegic.value.DoubleValue
148.935

@<SCITEGIC>MOL_PROPERTY
Coulomb
SciTegic.value.DoubleValue
150.046

@<SCITEGIC>MOL_PROPERTY
VdW
SciTegic.value.DoubleValue
-21.959

@<SCITEGIC>MOL_PROPERTY
VdW6
SciTegic.value.DoubleValue
-177.625

@<SCITEGIC>MOL_PROPERTY
VdW12
SciTegic.value.DoubleValue
155.665

@<SCITEGIC>MOL_PROPERTY
Bond
SciTegic.value.DoubleValue
5.197

@<SCITEGIC>MOL_PROPERTY
Angle
SciTegic.value.DoubleValue
16.371

@<SCITEGIC>MOL_PROPERTY
Pdih
SciTegic.value.DoubleValue
127.333

@<SCITEGIC>MOL_PROPERTY
Idih
SciTegic.value.DoubleValue
0.034

@<SCITEGIC>MOL_PROPERTY
Tether
SciTegic.value.DoubleValue
0.000

@<TRIPOS>MOLECULE
CD_guest-s19_fast_vm2_rndm.mol2 : feprocess host+ligand conformer 178
         143         148           2
SMALL
USER_CHARGES
 
@<TRIPOS>ATOM
       1    C1      16.083728   15.190839   20.888551 C.3        1 MOL1         0.2972
       2    H1      15.056828   15.011326   20.544946 H          1 MOL1         0.0751
       3    O1      16.272707   16.554727   21.309893 O.3        1 MOL1        -0.3740
       4    C2      16.438922   14.267184   22.080694 C.3        1 MOL1         0.1003
       5    H2      16.313637   13.233229   21.734005 H          1 MOL1         0.0783
       6    O2      15.554295   14.497823   23.189673 O.3        1 MOL1        -0.5519
       7    H3      15.520371   15.476252   23.342614 H          1 MOL1         0.3769
       8    C3      17.918132   14.439842   22.518355 C.3        1 MOL1         0.1053
       9    H4      18.027593   15.424908   22.993037 H          1 MOL1         0.0783
      10    O3      18.232762   13.404262   23.454642 O.3        1 MOL1        -0.5519
      11    H5      17.558860   13.480772   24.163726 H          1 MOL1         0.3769
      12    C4      18.897793   14.374141   21.314751 C.3        1 MOL1         0.1018
      13    H6      18.982966   13.325915   21.000898 H          1 MOL1         0.0783
      14    C5      18.401084   15.230592   20.117174 C.3        1 MOL1         0.1043
      15    H7      18.461825   16.281355   20.415743 H          1 MOL1         0.0783
      16    O4      17.019807   14.909589   19.827394 O.3        1 MOL1        -0.3740
      17    C6      19.216466   15.072314   18.808384 C.3        1 MOL1         0.0138
      18    H8      20.067891   15.761177   18.842151 H          1 MOL1         0.0794
      19    H9      18.587329   15.387612   17.965439 H          1 MOL1         0.0794
      20    O5      19.692412   13.739089   18.595151 O.3        1 MOL1        -0.5486
      21    H10     20.522163   13.652579   19.118894 H          1 MOL1         0.3769
      22    C7      14.572295   20.282758   21.472481 C.3        1 MOL1         0.2972
      23    H11     13.937602   21.177387   21.508207 H          1 MOL1         0.0751
      24    O6      15.969272   20.620745   21.370091 O.3        1 MOL1        -0.3740
      25    C8      14.367834   19.440207   22.754108 C.3        1 MOL1         0.1003
      26    H12     13.320376   19.112155   22.771705 H          1 MOL1         0.0783
      27    O7      14.638274   20.224452   23.926813 O.3        1 MOL1        -0.5519
      28    H13     15.270727   20.937858   23.660143 H          1 MOL1         0.3769
      29    C9      15.262200   18.180326   22.726135 C.3        1 MOL1         0.1053
      30    H14     16.305416   18.508019   22.804409 H          1 MOL1         0.0783
      31    O8      14.941748   17.341334   23.840564 O.3        1 MOL1        -0.5519
      32    H15     14.934295   17.944282   24.617025 H          1 MOL1         0.3769
      33    C10     15.098960   17.384226   21.406812 C.3        1 MOL1         0.1018
      34    H16     14.178823   16.789084   21.475478 H          1 MOL1         0.0783
      35    C11     15.063654   18.286427   20.135612 C.3        1 MOL1         0.1043
      36    H17     16.088021   18.618263   19.929237 H          1 MOL1         0.0783
      37    O9      14.227489   19.456254   20.341427 O.3        1 MOL1        -0.3740
      38    C12     14.569188   17.548228   18.869041 C.3        1 MOL1         0.0138
      39    H18     15.339262   16.827330   18.562766 H          1 MOL1         0.0794
      40    H19     14.465334   18.278955   18.055714 H          1 MOL1         0.0794
      41    O10     13.327093   16.868526   19.089981 O.3        1 MOL1        -0.5486
      42    H20     13.040785   16.484846   18.232495 H          1 MOL1         0.3769
      43    C13     18.519584   23.854668   20.604735 C.3        1 MOL1         0.2972
      44    H21     18.916507   24.831637   20.301117 H          1 MOL1         0.0751
      45    O11     19.591867   22.920187   20.865584 O.3        1 MOL1        -0.3740
      46    C14     17.590847   23.994133   21.848126 C.3        1 MOL1         0.1003
      47    H22     16.769221   24.659477   21.552534 H          1 MOL1         0.0783
      48    O12     18.260382   24.575468   22.976281 O.3        1 MOL1        -0.5519
      49    H23     18.949878   23.923928   23.261175 H          1 MOL1         0.3769
      50    C15     16.969554   22.629850   22.235371 C.3        1 MOL1         0.1053
      51    H24     17.776317   21.964605   22.572406 H          1 MOL1         0.0783
      52    O13     16.018761   22.818090   23.288958 O.3        1 MOL1        -0.5519
      53    H25     16.456441   23.428054   23.923842 H          1 MOL1         0.3769
      54    C16     16.278276   21.980235   21.013333 C.3        1 MOL1         0.1018
      55    H26     15.376556   22.558090   20.771784 H          1 MOL1         0.0783
      56    C17     17.213074   21.957217   19.773627 C.3        1 MOL1         0.1043
      57    H27     18.058522   21.295879   19.989745 H          1 MOL1         0.0783
      58    O14     17.714178   23.298055   19.537582 O.3        1 MOL1        -0.3740
      59    C18     16.551428   21.420003   18.478064 C.3        1 MOL1         0.0138
      60    H28     16.689466   20.331513   18.447063 H          1 MOL1         0.0794
      61    H29     17.087644   21.833765   17.613712 H          1 MOL1         0.0794
      62    O15     15.154180   21.723387   18.385289 O.3        1 MOL1        -0.5486
      63    H30     14.684623   21.091338   18.977288 H          1 MOL1         0.3769
      64    C19     23.602472   22.647203   22.006819 C.3        1 MOL1         0.2972
      65    H31     24.610258   22.856373   22.387509 H          1 MOL1         0.0751
      66    O16     23.562378   21.386616   21.300549 O.3        1 MOL1        -0.3740
      67    C20     22.568393   22.665237   23.169789 C.3        1 MOL1         0.1003
      68    H32     22.610346   23.670862   23.608370 H          1 MOL1         0.0783
      69    O17     22.862291   21.707114   24.197343 O.3        1 MOL1        -0.5519
      70    H33     23.820695   21.484473   24.123926 H          1 MOL1         0.3769
      71    C21     21.131448   22.441087   22.650107 C.3        1 MOL1         0.1053
      72    H34     21.066316   21.415216   22.264184 H          1 MOL1         0.0783
      73    O18     20.220666   22.607274   23.741789 O.3        1 MOL1        -0.5519
      74    H35     20.609090   22.063513   24.464112 H          1 MOL1         0.3769
      75    C22     20.784957   23.426522   21.505827 C.3        1 MOL1         0.1018
      76    H36     20.626053   24.422327   21.938904 H          1 MOL1         0.0783
      77    C23     21.914987   23.506601   20.437921 C.3        1 MOL1         0.1043
      78    H37     21.925068   22.568667   19.870295 H          1 MOL1         0.0783
      79    O19     23.205986   23.681767   21.079458 O.3        1 MOL1        -0.3740
      80    C24     21.717227   24.653032   19.417414 C.3        1 MOL1         0.0138
      81    H38     20.875428   24.392742   18.761584 H          1 MOL1         0.0794
      82    H39     22.613835   24.717977   18.786534 H          1 MOL1         0.0794
      83    O20     21.464681   25.911335   20.055734 O.3        1 MOL1        -0.5486
      84    H40     21.433368   26.599540   19.355749 H          1 MOL1         0.3769
      85    C25     25.326365   17.688480   21.351872 C.3        1 MOL1         0.2972
      86    H41     25.934874   16.776657   21.303658 H          1 MOL1         0.0751
      87    O21     23.919140   17.397181   21.508361 O.3        1 MOL1        -0.3740
      88    C26     25.795013   18.583241   22.521555 C.3        1 MOL1         0.1003
      89    H42     26.815004   18.915137   22.286842 H          1 MOL1         0.0783
      90    O22     25.818307   17.864671   23.763183 O.3        1 MOL1        -0.5519
      91    H43     25.044459   17.245561   23.759689 H          1 MOL1         0.3769
      92    C27     24.906307   19.841776   22.636036 C.3        1 MOL1         0.1053
      93    H44     23.903538   19.519037   22.950117 H          1 MOL1         0.0783
      94    O23     25.483686   20.698911   23.628069 O.3        1 MOL1        -0.5519
      95    H45     25.794904   20.085737   24.333658 H          1 MOL1         0.3769
      96    C28     24.774266   20.591871   21.278552 C.3        1 MOL1         0.1018
      97    H46     25.657877   21.226868   21.139582 H          1 MOL1         0.0783
      98    C29     24.639299   19.638555   20.049300 C.3        1 MOL1         0.1043
      99    H47     23.607821   19.285724   20.015755 H          1 MOL1         0.0783
     100    O24     25.497242   18.473147   20.155324 O.3        1 MOL1        -0.3740
     101    C30     24.906456   20.334654   18.693214 C.3        1 MOL1         0.0138
     102    H48     24.108388   21.067765   18.512750 H          1 MOL1         0.0794
     103    H49     24.839725   19.580504   17.897889 H          1 MOL1         0.0794
     104    O25     26.184263   20.981951   18.647184 O.3        1 MOL1        -0.5486
     105    H50     26.122479   21.803387   19.179588 H          1 MOL1         0.3769
     106    C31     21.314824   14.056843   21.607043 C.3        1 MOL1         0.2972
     107    H51     21.009850   13.004048   21.557260 H          1 MOL1         0.0751
     108    O26     20.165003   14.910065   21.764012 O.3        1 MOL1        -0.3740
     109    C32     22.274077   14.247747   22.816489 C.3        1 MOL1         0.1003
     110    H52     23.080046   13.512958   22.693811 H          1 MOL1         0.0783
     111    O27     21.605646   13.992685   24.060268 O.3        1 MOL1        -0.5519
     112    H53     20.949132   14.733966   24.184385 H          1 MOL1         0.3769
     113    C33     22.925027   15.651451   22.848554 C.3        1 MOL1         0.1053
     114    H54     22.150764   16.394609   23.076519 H          1 MOL1         0.0783
     115    O28     23.934823   15.667176   23.861852 O.3        1 MOL1        -0.5519
     116    H55     23.490485   15.302292   24.660095 H          1 MOL1         0.3769
     117    C34     23.533721   16.007584   21.475313 C.3        1 MOL1         0.1018
     118    H56     24.388743   15.346710   21.281535 H          1 MOL1         0.0783
     119    C35     22.477056   15.817696   20.356159 C.3        1 MOL1         0.1043
     120    H57     21.638430   16.496396   20.557793 H          1 MOL1         0.0783
     121    O29     22.003300   14.444837   20.391798 O.3        1 MOL1        -0.3740
     122    C36     22.993895   16.142594   18.930664 C.3        1 MOL1         0.0138
     123    H58     22.880808   17.221426   18.760664 H          1 MOL1         0.0794
     124    H59     22.353672   15.632868   18.198780 H          1 MOL1         0.0794
     125    O30     24.362552   15.771917   18.728772 O.3        1 MOL1        -0.5486
     126    H60     24.911579   16.497030   19.103448 H          1 MOL1         0.3769
     127    C1      19.428382   17.280627   24.831250 C.2        1 MOL1         0.6173
     128    O1      18.930996   17.448751   25.928199 O.co2      1 MOL1        -0.6755
     129    O2      20.227625   16.393963   24.594571 O.co2      1 MOL1        -0.6755
     130    C2      18.989414   18.193437   23.739273 C.2        1 MOL1        -0.1504
     131    H1      18.232459   18.922818   24.016402 H          1 MOL1         0.0814
     132    C3      19.454593   18.150260   22.470002 C.2        1 MOL1        -0.1394
     133    H2      20.217547   17.432520   22.181153 H          1 MOL1         0.0817
     134    C4      18.927373   19.053534   21.375517 C.3        1 MOL1        -0.1849
     135    H3      18.987303   20.100372   21.698396 H          1 MOL1         0.0736
     136    H4      17.867128   18.832853   21.234077 H          1 MOL1         0.0736
     137    C5      19.636941   18.879778   20.015697 C.3        1 MOL1        -0.1866
     138    H5      19.745955   17.820487   19.773041 H          1 MOL1         0.0738
     139    H6      19.023563   19.320947   19.219618 H          1 MOL1         0.0738
     140    C6      21.019335   19.539502   20.004434 C.3        1 MOL1        -0.2879
     141    H7      21.626200   19.168007   20.839909 H          1 MOL1         0.0750
     142    H8      21.539332   19.332358   19.061422 H          1 MOL1         0.0750
     143    H9      20.922806   20.624110   20.106831 H          1 MOL1         0.0750
@<TRIPOS>BOND
    1     1     2    1
    2     1     3    1
    3     1     4    1
    4     4     5    1
    5     4     6    1
    6     6     7    1
    7     4     8    1
    8     8     9    1
    9     8    10    1
   10    10    11    1
   11     8    12    1
   12    12    13    1
   13    12    14    1
   14    14    15    1
   15     1    16    1
   16    14    16    1
   17    14    17    1
   18    17    18    1
   19    17    19    1
   20    17    20    1
   21    20    21    1
   22    22    23    1
   23    22    24    1
   24    22    25    1
   25    25    26    1
   26    25    27    1
   27    27    28    1
   28    25    29    1
   29    29    30    1
   30    29    31    1
   31    31    32    1
   32     3    33    1
   33    29    33    1
   34    33    34    1
   35    33    35    1
   36    35    36    1
   37    22    37    1
   38    35    37    1
   39    35    38    1
   40    38    39    1
   41    38    40    1
   42    38    41    1
   43    41    42    1
   44    43    44    1
   45    43    45    1
   46    43    46    1
   47    46    47    1
   48    46    48    1
   49    48    49    1
   50    46    50    1
   51    50    51    1
   52    50    52    1
   53    52    53    1
   54    24    54    1
   55    50    54    1
   56    54    55    1
   57    54    56    1
   58    56    57    1
   59    43    58    1
   60    56    58    1
   61    56    59    1
   62    59    60    1
   63    59    61    1
   64    59    62    1
   65    62    63    1
   66    64    65    1
   67    64    66    1
   68    64    67    1
   69    67    68    1
   70    67    69    1
   71    69    70    1
   72    67    71    1
   73    71    72    1
   74    71    73    1
   75    73    74    1
   76    45    75    1
   77    71    75    1
   78    75    76    1
   79    75    77    1
   80    77    78    1
   81    64    79    1
   82    77    79    1
   83    77    80    1
   84    80    81    1
   85    80    82    1
   86    80    83    1
   87    83    84    1
   88    85    86    1
   89    85    87    1
   90    85    88    1
   91    88    89    1
   92    88    90    1
   93    90    91    1
   94    88    92    1
   95    92    93    1
   96    92    94    1
   97    94    95    1
   98    66    96    1
   99    92    96    1
  100    96    97    1
  101    96    98    1
  102    98    99    1
  103    85   100    1
  104    98   100    1
  105    98   101    1
  106   101   102    1
  107   101   103    1
  108   101   104    1
  109   104   105    1
  110   106   107    1
  111    12   108    1
  112   106   108    1
  113   106   109    1
  114   109   110    1
  115   109   111    1
  116   111   112    1
  117   109   113    1
  118   113   114    1
  119   113   115    1
  120   115   116    1
  121    87   117    1
  122   113   117    1
  123   117   118    1
  124   117   119    1
  125   119   120    1
  126   106   121    1
  127   119   121    1
  128   119   122    1
  129   122   123    1
  130   122   124    1
  131   122   125    1
  132   125   126    1
  133   127   128    1
  134   127   129    2
  135   127   130    1
  136   130   131    1
  137   130   132    2
  138   132   133    1
  139   132   134    1
  140   134   135    1
  141   134   136    1
  142   134   137    1
  143   137   138    1
  144   137   139    1
  145   137   140    1
  146   140   141    1
  147   140   142    1
  148   140   143    1
@<TRIPOS>SUBSTRUCTURE
       1 MOL1            1 RESIDUE      1      MOL     
       2 MOL1          143 RESIDUE      1      MOL     
@<SCITEGIC>MOL_PROPERTY
feprocess Rank
SciTegic.value.IntegerValue
178

@<SCITEGIC>MOL_PROPERTY
Conf_Id
SciTegic.value.IntegerValue
980

@<SCITEGIC>MOL_PROPERTY
Probability
SciTegic.value.DoubleValue
0.00

@<SCITEGIC>MOL_PROPERTY
G
SciTegic.value.DoubleValue
506.040

@<SCITEGIC>MOL_PROPERTY
E
SciTegic.value.DoubleValue
322.601

@<SCITEGIC>MOL_PROPERTY
-TS
SciTegic.value.DoubleValue
183.440

@<SCITEGIC>MOL_PROPERTY
U+W
SciTegic.value.DoubleValue
196.513

@<SCITEGIC>MOL_PROPERTY
U
SciTegic.value.DoubleValue
279.448

@<SCITEGIC>MOL_PROPERTY
W
SciTegic.value.DoubleValue
-82.936

@<SCITEGIC>MOL_PROPERTY
W(PB)
SciTegic.value.DoubleValue
-89.017

@<SCITEGIC>MOL_PROPERTY
W(SA)
SciTegic.value.DoubleValue
6.082

@<SCITEGIC>MOL_PROPERTY
Valence
SciTegic.value.DoubleValue
152.803

@<SCITEGIC>MOL_PROPERTY
Coulomb
SciTegic.value.DoubleValue
150.574

@<SCITEGIC>MOL_PROPERTY
VdW
SciTegic.value.DoubleValue
-23.929

@<SCITEGIC>MOL_PROPERTY
VdW6
SciTegic.value.DoubleValue
-181.449

@<SCITEGIC>MOL_PROPERTY
VdW12
SciTegic.value.DoubleValue
157.521

@<SCITEGIC>MOL_PROPERTY
Bond
SciTegic.value.DoubleValue
5.360

@<SCITEGIC>MOL_PROPERTY
Angle
SciTegic.value.DoubleValue
15.513

@<SCITEGIC>MOL_PROPERTY
Pdih
SciTegic.value.DoubleValue
131.925

@<SCITEGIC>MOL_PROPERTY
Idih
SciTegic.value.DoubleValue
0.005

@<SCITEGIC>MOL_PROPERTY
Tether
SciTegic.value.DoubleValue
0.000

@<TRIPOS>MOLECULE
CD_guest-s19_fast_vm2_rndm.mol2 : feprocess host+ligand conformer 179
         143         148           2
SMALL
USER_CHARGES
 
@<TRIPOS>ATOM
       1    C1      16.115553   15.209914   20.929147 C.3        1 MOL1         0.2972
       2    H1      15.083184   14.997013   20.624270 H          1 MOL1         0.0751
       3    O1      16.225948   16.501157   21.551458 O.3        1 MOL1        -0.3740
       4    C2      16.577132   14.169514   21.980171 C.3        1 MOL1         0.1003
       5    H2      16.476295   13.173381   21.530136 H          1 MOL1         0.0783
       6    O2      15.750194   14.251597   23.152376 O.3        1 MOL1        -0.5519
       7    H3      15.550794   15.210355   23.287766 H          1 MOL1         0.3769
       8    C3      18.063566   14.380297   22.356389 C.3        1 MOL1         0.1053
       9    H4      18.153895   15.332807   22.896604 H          1 MOL1         0.0783
      10    O3      18.502147   13.302277   23.190501 O.3        1 MOL1        -0.5519
      11    H5      17.797974   13.201716   23.868981 H          1 MOL1         0.3769
      12    C4      18.941400   14.461240   21.086297 C.3        1 MOL1         0.1018
      13    H6      18.948466   13.474275   20.605307 H          1 MOL1         0.0783
      14    C5      18.388162   15.508463   20.082132 C.3        1 MOL1         0.1043
      15    H7      18.428816   16.499538   20.550655 H          1 MOL1         0.0783
      16    O4      17.008485   15.165424   19.793063 O.3        1 MOL1        -0.3740
      17    C6      19.169645   15.613930   18.747391 C.3        1 MOL1         0.0138
      18    H8      20.001406   16.316837   18.886701 H          1 MOL1         0.0794
      19    H9      18.509887   16.055135   17.989143 H          1 MOL1         0.0794
      20    O5      19.675151   14.354597   18.288661 O.3        1 MOL1        -0.5486
      21    H10     20.518762   14.197262   18.772207 H          1 MOL1         0.3769
      22    C7      14.564163   20.317286   21.400494 C.3        1 MOL1         0.2972
      23    H11     13.888180   21.172011   21.270907 H          1 MOL1         0.0751
      24    O6      15.879967   20.741232   21.806238 O.3        1 MOL1        -0.3740
      25    C8      14.015241   19.382750   22.504985 C.3        1 MOL1         0.1003
      26    H12     13.011249   19.059335   22.201122 H          1 MOL1         0.0783
      27    O7      13.934799   20.090401   23.752637 O.3        1 MOL1        -0.5519
      28    H13     14.709015   20.704031   23.776697 H          1 MOL1         0.3769
      29    C9      14.901332   18.124511   22.656405 C.3        1 MOL1         0.1053
      30    H14     15.868146   18.441698   23.065041 H          1 MOL1         0.0783
      31    O8      14.275007   17.200665   23.554138 O.3        1 MOL1        -0.5519
      32    H15     14.022945   17.736973   24.337722 H          1 MOL1         0.3769
      33    C10     15.166693   17.440381   21.293881 C.3        1 MOL1         0.1018
      34    H16     14.243114   16.942541   20.970834 H          1 MOL1         0.0783
      35    C11     15.626021   18.464534   20.215770 C.3        1 MOL1         0.1043
      36    H17     16.611235   18.845764   20.510946 H          1 MOL1         0.0783
      37    O9      14.678103   19.561828   20.176572 O.3        1 MOL1        -0.3740
      38    C12     15.777532   17.911316   18.776583 C.3        1 MOL1         0.0138
      39    H18     16.796353   17.519583   18.664067 H          1 MOL1         0.0794
      40    H19     15.685026   18.745928   18.069530 H          1 MOL1         0.0794
      41    O10     14.822997   16.893598   18.455807 O.3        1 MOL1        -0.5486
      42    H20     15.264881   16.035121   18.640340 H          1 MOL1         0.3769
      43    C13     18.469009   24.012815   21.336425 C.3        1 MOL1         0.2972
      44    H21     18.844040   25.021542   21.120921 H          1 MOL1         0.0751
      45    O11     19.540273   23.121835   21.701176 O.3        1 MOL1        -0.3740
      46    C14     17.472221   24.077713   22.519712 C.3        1 MOL1         0.1003
      47    H22     16.672829   24.776756   22.241544 H          1 MOL1         0.0783
      48    O12     18.135849   24.558985   23.699384 O.3        1 MOL1        -0.5519
      49    H23     19.083054   24.290126   23.617567 H          1 MOL1         0.3769
      50    C15     16.827936   22.697198   22.784374 C.3        1 MOL1         0.1053
      51    H24     17.611745   22.022657   23.154079 H          1 MOL1         0.0783
      52    O13     15.794760   22.832579   23.767182 O.3        1 MOL1        -0.5519
      53    H25     16.200750   23.353977   24.494315 H          1 MOL1         0.3769
      54    C16     16.245513   22.096100   21.482373 C.3        1 MOL1         0.1018
      55    H26     15.375328   22.695231   21.183693 H          1 MOL1         0.0783
      56    C17     17.302747   22.106205   20.340685 C.3        1 MOL1         0.1043
      57    H27     18.126066   21.439653   20.631976 H          1 MOL1         0.0783
      58    O14     17.797317   23.461381   20.185206 O.3        1 MOL1        -0.3740
      59    C18     16.805658   21.632143   18.952294 C.3        1 MOL1         0.0138
      60    H28     16.925502   20.544043   18.894629 H          1 MOL1         0.0794
      61    H29     17.462423   22.057211   18.181991 H          1 MOL1         0.0794
      62    O15     15.445563   21.991299   18.686112 O.3        1 MOL1        -0.5486
      63    H30     14.892177   21.269446   19.063541 H          1 MOL1         0.3769
      64    C19     23.650775   22.647489   21.015015 C.3        1 MOL1         0.2972
      65    H31     24.683471   22.797534   20.674657 H          1 MOL1         0.0751
      66    O16     23.481502   21.378343   21.668969 O.3        1 MOL1        -0.3740
      67    C20     23.251028   23.734299   22.044742 C.3        1 MOL1         0.1003
      68    H32     23.381875   24.712405   21.563958 H          1 MOL1         0.0783
      69    O17     24.092831   23.654101   23.207358 O.3        1 MOL1        -0.5519
      70    H33     24.179990   22.694147   23.431400 H          1 MOL1         0.3769
      71    C21     21.762557   23.591084   22.452697 C.3        1 MOL1         0.1053
      72    H34     21.653447   22.663616   23.031980 H          1 MOL1         0.0783
      73    O18     21.376716   24.712173   23.255933 O.3        1 MOL1        -0.5519
      74    H35     22.093669   24.811390   23.920926 H          1 MOL1         0.3769
      75    C22     20.844002   23.489957   21.209979 C.3        1 MOL1         0.1018
      76    H36     20.834838   24.466718   20.708545 H          1 MOL1         0.0783
      77    C23     21.353235   22.412573   20.211839 C.3        1 MOL1         0.1043
      78    H37     21.285135   21.428649   20.693175 H          1 MOL1         0.0783
      79    O19     22.734980   22.711850   19.902444 O.3        1 MOL1        -0.3740
      80    C24     20.580324   22.315169   18.872834 C.3        1 MOL1         0.0138
      81    H38     19.729993   21.636313   19.009328 H          1 MOL1         0.0794
      82    H39     21.235393   21.841078   18.129734 H          1 MOL1         0.0794
      83    O20     20.122531   23.584691   18.391551 O.3        1 MOL1        -0.5486
      84    H40     19.283257   23.778796   18.869736 H          1 MOL1         0.3769
      85    C25     25.178111   17.616481   21.839821 C.3        1 MOL1         0.2972
      86    H41     25.845494   16.745444   21.860220 H          1 MOL1         0.0751
      87    O21     23.793617   17.231035   21.904593 O.3        1 MOL1        -0.3740
      88    C26     25.470882   18.527273   23.055069 C.3        1 MOL1         0.1003
      89    H42     26.512376   18.865181   22.976336 H          1 MOL1         0.0783
      90    O22     25.296498   17.796470   24.279817 O.3        1 MOL1        -0.5519
      91    H43     24.624414   17.092894   24.100043 H          1 MOL1         0.3769
      92    C27     24.557382   19.773584   23.032714 C.3        1 MOL1         0.1053
      93    H44     23.523707   19.442312   23.204668 H          1 MOL1         0.0783
      94    O23     24.953721   20.679911   24.069081 O.3        1 MOL1        -0.5519
      95    H45     25.050810   20.120967   24.871862 H          1 MOL1         0.3769
      96    C28     24.612942   20.492001   21.663335 C.3        1 MOL1         0.1018
      97    H46     25.562471   21.039651   21.599373 H          1 MOL1         0.0783
      98    C29     24.474655   19.511411   20.461158 C.3        1 MOL1         0.1043
      99    H47     23.437328   19.154008   20.437035 H          1 MOL1         0.0783
     100    O24     25.371064   18.382483   20.634364 O.3        1 MOL1        -0.3740
     101    C30     24.771983   20.142659   19.080249 C.3        1 MOL1         0.0138
     102    H48     23.924757   20.779255   18.795501 H          1 MOL1         0.0794
     103    H49     24.829525   19.338363   18.334709 H          1 MOL1         0.0794
     104    O25     25.985317   20.906214   19.083286 O.3        1 MOL1        -0.5486
     105    H50     26.135268   21.228473   18.168031 H          1 MOL1         0.3769
     106    C31     21.322108   13.951877   21.195770 C.3        1 MOL1         0.2972
     107    H51     20.943831   12.954932   20.936188 H          1 MOL1         0.0751
     108    O26     20.253472   14.862447   21.515825 O.3        1 MOL1        -0.3740
     109    C32     22.243817   13.851907   22.436240 C.3        1 MOL1         0.1003
     110    H52     23.071557   13.177607   22.180895 H          1 MOL1         0.0783
     111    O27     21.525256   13.316059   23.558831 O.3        1 MOL1        -0.5519
     112    H53     20.573106   13.558451   23.434965 H          1 MOL1         0.3769
     113    C33     22.842696   15.233109   22.785541 C.3        1 MOL1         0.1053
     114    H54     22.026651   15.890034   23.115697 H          1 MOL1         0.0783
     115    O28     23.805376   15.088851   23.835710 O.3        1 MOL1        -0.5519
     116    H55     23.369467   14.510152   24.500507 H          1 MOL1         0.3769
     117    C34     23.504813   15.871239   21.542524 C.3        1 MOL1         0.1018
     118    H56     24.412965   15.303217   21.301492 H          1 MOL1         0.0783
     119    C35     22.555668   15.867324   20.310928 C.3        1 MOL1         0.1043
     120    H57     21.705969   16.524150   20.529541 H          1 MOL1         0.0783
     121    O29     22.073892   14.515347   20.097793 O.3        1 MOL1        -0.3740
     122    C36     23.187268   16.381624   18.991899 C.3        1 MOL1         0.0138
     123    H58     23.058205   17.470280   18.945591 H          1 MOL1         0.0794
     124    H59     22.623667   15.962845   18.147719 H          1 MOL1         0.0794
     125    O30     24.576897   16.057798   18.867077 O.3        1 MOL1        -0.5486
     126    H60     25.070615   16.735256   19.384884 H          1 MOL1         0.3769
     127    C1      20.097353   18.943687   20.083849 C.2        1 MOL1         0.6173
     128    O1      21.086487   19.095218   19.392573 O.co2      1 MOL1        -0.6755
     129    O2      18.960529   19.028586   19.655945 O.co2      1 MOL1        -0.6755
     130    C2      20.321437   18.603171   21.515121 C.2        1 MOL1        -0.1504
     131    H1      21.360164   18.548555   21.830531 H          1 MOL1         0.0814
     132    C3      19.331313   18.345391   22.397837 C.2        1 MOL1        -0.1394
     133    H2      18.287536   18.389549   22.091465 H          1 MOL1         0.0817
     134    C4      19.590670   17.949701   23.836494 C.3        1 MOL1        -0.1849
     135    H3      20.353661   18.606169   24.275819 H          1 MOL1         0.0736
     136    H4      20.006097   16.933883   23.857306 H          1 MOL1         0.0736
     137    C5      18.317118   17.982527   24.709495 C.3        1 MOL1        -0.1866
     138    H5      17.546967   17.337242   24.265878 H          1 MOL1         0.0738
     139    H6      18.547836   17.558245   25.695992 H          1 MOL1         0.0738
     140    C6      17.765822   19.412368   24.894929 C.3        1 MOL1        -0.2879
     141    H7      17.504764   19.861805   23.929963 H          1 MOL1         0.0750
     142    H8      16.862247   19.402069   25.517750 H          1 MOL1         0.0750
     143    H9      18.507765   20.058771   25.380911 H          1 MOL1         0.0750
@<TRIPOS>BOND
    1     1     2    1
    2     1     3    1
    3     1     4    1
    4     4     5    1
    5     4     6    1
    6     6     7    1
    7     4     8    1
    8     8     9    1
    9     8    10    1
   10    10    11    1
   11     8    12    1
   12    12    13    1
   13    12    14    1
   14    14    15    1
   15     1    16    1
   16    14    16    1
   17    14    17    1
   18    17    18    1
   19    17    19    1
   20    17    20    1
   21    20    21    1
   22    22    23    1
   23    22    24    1
   24    22    25    1
   25    25    26    1
   26    25    27    1
   27    27    28    1
   28    25    29    1
   29    29    30    1
   30    29    31    1
   31    31    32    1
   32     3    33    1
   33    29    33    1
   34    33    34    1
   35    33    35    1
   36    35    36    1
   37    22    37    1
   38    35    37    1
   39    35    38    1
   40    38    39    1
   41    38    40    1
   42    38    41    1
   43    41    42    1
   44    43    44    1
   45    43    45    1
   46    43    46    1
   47    46    47    1
   48    46    48    1
   49    48    49    1
   50    46    50    1
   51    50    51    1
   52    50    52    1
   53    52    53    1
   54    24    54    1
   55    50    54    1
   56    54    55    1
   57    54    56    1
   58    56    57    1
   59    43    58    1
   60    56    58    1
   61    56    59    1
   62    59    60    1
   63    59    61    1
   64    59    62    1
   65    62    63    1
   66    64    65    1
   67    64    66    1
   68    64    67    1
   69    67    68    1
   70    67    69    1
   71    69    70    1
   72    67    71    1
   73    71    72    1
   74    71    73    1
   75    73    74    1
   76    45    75    1
   77    71    75    1
   78    75    76    1
   79    75    77    1
   80    77    78    1
   81    64    79    1
   82    77    79    1
   83    77    80    1
   84    80    81    1
   85    80    82    1
   86    80    83    1
   87    83    84    1
   88    85    86    1
   89    85    87    1
   90    85    88    1
   91    88    89    1
   92    88    90    1
   93    90    91    1
   94    88    92    1
   95    92    93    1
   96    92    94    1
   97    94    95    1
   98    66    96    1
   99    92    96    1
  100    96    97    1
  101    96    98    1
  102    98    99    1
  103    85   100    1
  104    98   100    1
  105    98   101    1
  106   101   102    1
  107   101   103    1
  108   101   104    1
  109   104   105    1
  110   106   107    1
  111    12   108    1
  112   106   108    1
  113   106   109    1
  114   109   110    1
  115   109   111    1
  116   111   112    1
  117   109   113    1
  118   113   114    1
  119   113   115    1
  120   115   116    1
  121    87   117    1
  122   113   117    1
  123   117   118    1
  124   117   119    1
  125   119   120    1
  126   106   121    1
  127   119   121    1
  128   119   122    1
  129   122   123    1
  130   122   124    1
  131   122   125    1
  132   125   126    1
  133   127   128    1
  134   127   129    2
  135   127   130    1
  136   130   131    1
  137   130   132    2
  138   132   133    1
  139   132   134    1
  140   134   135    1
  141   134   136    1
  142   134   137    1
  143   137   138    1
  144   137   139    1
  145   137   140    1
  146   140   141    1
  147   140   142    1
  148   140   143    1
@<TRIPOS>SUBSTRUCTURE
       1 MOL1            1 RESIDUE      1      MOL     
       2 MOL1          143 RESIDUE      1      MOL     
@<SCITEGIC>MOL_PROPERTY
feprocess Rank
SciTegic.value.IntegerValue
179

@<SCITEGIC>MOL_PROPERTY
Conf_Id
SciTegic.value.IntegerValue
932

@<SCITEGIC>MOL_PROPERTY
Probability
SciTegic.value.DoubleValue
0.00

@<SCITEGIC>MOL_PROPERTY
G
SciTegic.value.DoubleValue
506.066

@<SCITEGIC>MOL_PROPERTY
E
SciTegic.value.DoubleValue
324.359

@<SCITEGIC>MOL_PROPERTY
-TS
SciTegic.value.DoubleValue
181.707

@<SCITEGIC>MOL_PROPERTY
U+W
SciTegic.value.DoubleValue
198.270

@<SCITEGIC>MOL_PROPERTY
U
SciTegic.value.DoubleValue
262.827

@<SCITEGIC>MOL_PROPERTY
W
SciTegic.value.DoubleValue
-64.556

@<SCITEGIC>MOL_PROPERTY
W(PB)
SciTegic.value.DoubleValue
-70.485

@<SCITEGIC>MOL_PROPERTY
W(SA)
SciTegic.value.DoubleValue
5.928

@<SCITEGIC>MOL_PROPERTY
Valence
SciTegic.value.DoubleValue
152.465

@<SCITEGIC>MOL_PROPERTY
Coulomb
SciTegic.value.DoubleValue
139.822

@<SCITEGIC>MOL_PROPERTY
VdW
SciTegic.value.DoubleValue
-29.460

@<SCITEGIC>MOL_PROPERTY
VdW6
SciTegic.value.DoubleValue
-184.308

@<SCITEGIC>MOL_PROPERTY
VdW12
SciTegic.value.DoubleValue
154.848

@<SCITEGIC>MOL_PROPERTY
Bond
SciTegic.value.DoubleValue
4.316

@<SCITEGIC>MOL_PROPERTY
Angle
SciTegic.value.DoubleValue
13.459

@<SCITEGIC>MOL_PROPERTY
Pdih
SciTegic.value.DoubleValue
134.685

@<SCITEGIC>MOL_PROPERTY
Idih
SciTegic.value.DoubleValue
0.005

@<SCITEGIC>MOL_PROPERTY
Tether
SciTegic.value.DoubleValue
0.000

@<TRIPOS>MOLECULE
CD_guest-s19_fast_vm2_rndm.mol2 : feprocess host+ligand conformer 180
         143         148           2
SMALL
USER_CHARGES
 
@<TRIPOS>ATOM
       1    C1      16.305211   15.525459   22.023432 C.3        1 MOL1         0.2972
       2    H1      15.211895   15.598470   21.985944 H          1 MOL1         0.0751
       3    O1      16.930694   16.744939   21.578159 O.3        1 MOL1        -0.3740
       4    C2      16.749665   15.193830   23.465676 C.3        1 MOL1         0.1003
       5    H2      16.315079   14.218329   23.719467 H          1 MOL1         0.0783
       6    O2      16.270968   16.172140   24.402443 O.3        1 MOL1        -0.5519
       7    H3      16.600265   17.067812   24.109535 H          1 MOL1         0.3769
       8    C3      18.283155   15.062147   23.553491 C.3        1 MOL1         0.1053
       9    H4      18.706784   16.058547   23.383025 H          1 MOL1         0.0783
      10    O3      18.634940   14.607158   24.864726 O.3        1 MOL1        -0.5519
      11    H5      18.132440   15.188362   25.477350 H          1 MOL1         0.3769
      12    C4      18.870330   14.103287   22.482388 C.3        1 MOL1         0.1018
      13    H6      18.749404   13.073087   22.840508 H          1 MOL1         0.0783
      14    C5      18.199427   14.259760   21.073571 C.3        1 MOL1         0.1043
      15    H7      18.643739   15.137808   20.595827 H          1 MOL1         0.0783
      16    O4      16.764197   14.454474   21.178045 O.3        1 MOL1        -0.3740
      17    C6      18.382333   13.050828   20.117064 C.3        1 MOL1         0.0138
      18    H8      19.386998   13.066498   19.681690 H          1 MOL1         0.0794
      19    H9      17.682149   13.164849   19.278436 H          1 MOL1         0.0794
      20    O5      18.155838   11.798786   20.775336 O.3        1 MOL1        -0.5486
      21    H10     18.194571   11.092125   20.094215 H          1 MOL1         0.3769
      22    C7      15.902903   20.210628   19.488545 C.3        1 MOL1         0.2972
      23    H11     15.542773   20.947092   18.759060 H          1 MOL1         0.0751
      24    O6      16.819616   20.807124   20.424916 O.3        1 MOL1        -0.3740
      25    C8      14.720636   19.534563   20.236472 C.3        1 MOL1         0.1003
      26    H12     14.113492   19.034067   19.470938 H          1 MOL1         0.0783
      27    O7      13.894399   20.488766   20.921081 O.3        1 MOL1        -0.5519
      28    H13     14.445920   20.871199   21.649789 H          1 MOL1         0.3769
      29    C9      15.215168   18.446401   21.223079 C.3        1 MOL1         0.1053
      30    H14     15.731754   18.944762   22.053359 H          1 MOL1         0.0783
      31    O8      14.069489   17.737360   21.707600 O.3        1 MOL1        -0.5519
      32    H15     13.450772   18.431091   22.024311 H          1 MOL1         0.3769
      33    C10     16.216785   17.465600   20.549576 C.3        1 MOL1         0.1018
      34    H16     15.653064   16.782650   19.901250 H          1 MOL1         0.0783
      35    C11     17.283573   18.206821   19.698048 C.3        1 MOL1         0.1043
      36    H17     17.955216   18.739016   20.385055 H          1 MOL1         0.0783
      37    O9      16.629430   19.157223   18.818789 O.3        1 MOL1        -0.3740
      38    C12     18.179057   17.276675   18.843568 C.3        1 MOL1         0.0138
      39    H18     18.991985   16.912733   19.482118 H          1 MOL1         0.0794
      40    H19     18.643848   17.870935   18.045597 H          1 MOL1         0.0794
      41    O10     17.468052   16.166343   18.281538 O.3        1 MOL1        -0.5486
      42    H20     17.103626   15.639978   19.026437 H          1 MOL1         0.3769
      43    C13     18.305504   24.088461   22.273591 C.3        1 MOL1         0.2972
      44    H21     18.570324   25.047255   22.736936 H          1 MOL1         0.0751
      45    O11     19.420482   23.170462   22.293591 O.3        1 MOL1        -0.3740
      46    C14     17.112468   23.453252   23.031012 C.3        1 MOL1         0.1003
      47    H22     16.244761   24.109115   22.883748 H          1 MOL1         0.0783
      48    O12     17.390461   23.361331   24.437939 O.3        1 MOL1        -0.5519
      49    H23     17.351928   22.402872   24.691984 H          1 MOL1         0.3769
      50    C15     16.773167   22.073533   22.420903 C.3        1 MOL1         0.1053
      51    H24     17.628242   21.408983   22.601676 H          1 MOL1         0.0783
      52    O13     15.599282   21.526020   23.035755 O.3        1 MOL1        -0.5519
      53    H25     15.921734   21.065440   23.855711 H          1 MOL1         0.3769
      54    C16     16.571570   22.148181   20.887474 C.3        1 MOL1         0.1018
      55    H26     15.550484   22.488176   20.672841 H          1 MOL1         0.0783
      56    C17     17.608742   23.055045   20.163603 C.3        1 MOL1         0.1043
      57    H27     18.538272   22.477420   20.087901 H          1 MOL1         0.0783
      58    O14     17.880727   24.273488   20.906782 O.3        1 MOL1        -0.3740
      59    C18     17.190483   23.440411   18.723856 C.3        1 MOL1         0.0138
      60    H28     17.249399   22.544519   18.091381 H          1 MOL1         0.0794
      61    H29     17.913219   24.166614   18.328730 H          1 MOL1         0.0794
      62    O15     15.866712   23.985115   18.673583 O.3        1 MOL1        -0.5486
      63    H30     15.698053   24.277653   17.751294 H          1 MOL1         0.3769
      64    C19     23.485362   22.684794   21.844365 C.3        1 MOL1         0.2972
      65    H31     24.574476   22.772455   21.736440 H          1 MOL1         0.0751
      66    O16     23.045243   21.322334   21.693484 O.3        1 MOL1        -0.3740
      67    C20     23.054842   23.187729   23.238270 C.3        1 MOL1         0.1003
      68    H32     23.345164   24.243980   23.310495 H          1 MOL1         0.0783
      69    O17     23.721441   22.440841   24.269197 O.3        1 MOL1        -0.5519
      70    H33     24.135492   21.659136   23.831194 H          1 MOL1         0.3769
      71    C21     21.521056   23.099948   23.408037 C.3        1 MOL1         0.1053
      72    H34     21.246723   22.037515   23.463127 H          1 MOL1         0.0783
      73    O18     21.165780   23.754538   24.629337 O.3        1 MOL1        -0.5519
      74    H35     21.764751   23.370747   25.306602 H          1 MOL1         0.3769
      75    C22     20.749053   23.733220   22.216734 C.3        1 MOL1         0.1018
      76    H36     20.745585   24.822326   22.352442 H          1 MOL1         0.0783
      77    C23     21.362491   23.364667   20.826634 C.3        1 MOL1         0.1043
      78    H37     21.096299   22.321325   20.621381 H          1 MOL1         0.0783
      79    O19     22.807318   23.484676   20.857582 O.3        1 MOL1        -0.3740
      80    C24     20.871245   24.205696   19.617206 C.3        1 MOL1         0.0138
      81    H38     20.077936   23.655645   19.100462 H          1 MOL1         0.0794
      82    H39     21.695647   24.296026   18.896966 H          1 MOL1         0.0794
      83    O20     20.403691   25.509782   19.976433 O.3        1 MOL1        -0.5486
      84    H40     19.490155   25.394901   20.328469 H          1 MOL1         0.3769
      85    C25     24.575461   17.653259   20.437291 C.3        1 MOL1         0.2972
      86    H41     25.147278   16.867745   19.927178 H          1 MOL1         0.0751
      87    O21     23.555771   17.100981   21.290580 O.3        1 MOL1        -0.3740
      88    C26     25.519667   18.491586   21.335167 C.3        1 MOL1         0.1003
      89    H42     26.293527   18.927391   20.690030 H          1 MOL1         0.0783
      90    O22     26.138989   17.652435   22.323114 O.3        1 MOL1        -0.5519
      91    H43     25.464299   16.980986   22.591691 H          1 MOL1         0.3769
      92    C27     24.751120   19.650402   22.014641 C.3        1 MOL1         0.1053
      93    H44     24.041131   19.215407   22.726372 H          1 MOL1         0.0783
      94    O23     25.669911   20.497206   22.712081 O.3        1 MOL1        -0.5519
      95    H45     26.263270   19.882273   23.198516 H          1 MOL1         0.3769
      96    C28     23.946007   20.464787   20.972960 C.3        1 MOL1         0.1018
      97    H46     24.646487   21.036881   20.350083 H          1 MOL1         0.0783
      98    C29     23.087049   19.551183   20.058097 C.3        1 MOL1         0.1043
      99    H47     22.313955   19.075283   20.675707 H          1 MOL1         0.0783
     100    O24     23.940531   18.531114   19.480810 O.3        1 MOL1        -0.3740
     101    C30     22.351194   20.297787   18.914373 C.3        1 MOL1         0.0138
     102    H48     21.365163   20.607522   19.282716 H          1 MOL1         0.0794
     103    H49     22.173116   19.593176   18.091171 H          1 MOL1         0.0794
     104    O25     23.065853   21.443429   18.433276 O.3        1 MOL1        -0.5486
     105    H50     23.098430   22.100328   19.165818 H          1 MOL1         0.3769
     106    C31     21.177154   13.660075   21.659560 C.3        1 MOL1         0.2972
     107    H51     20.797275   12.636018   21.551180 H          1 MOL1         0.0751
     108    O26     20.272753   14.468280   22.435771 O.3        1 MOL1        -0.3740
     109    C32     22.544724   13.643020   22.392255 C.3        1 MOL1         0.1003
     110    H52     23.218910   12.994070   21.818301 H          1 MOL1         0.0783
     111    O27     22.389694   13.116930   23.718553 O.3        1 MOL1        -0.5519
     112    H53     21.612610   13.582847   24.103942 H          1 MOL1         0.3769
     113    C33     23.176278   15.055818   22.454958 C.3        1 MOL1         0.1053
     114    H54     22.565025   15.676034   23.125195 H          1 MOL1         0.0783
     115    O28     24.513086   14.960714   22.961087 O.3        1 MOL1        -0.5519
     116    H55     24.444730   14.408508   23.770468 H          1 MOL1         0.3769
     117    C34     23.193315   15.727656   21.062446 C.3        1 MOL1         0.1018
     118    H56     23.927763   15.205725   20.434990 H          1 MOL1         0.0783
     119    C35     21.792907   15.668554   20.393584 C.3        1 MOL1         0.1043
     120    H57     21.094659   16.262174   20.998754 H          1 MOL1         0.0783
     121    O29     21.359767   14.287762   20.370027 O.3        1 MOL1        -0.3740
     122    C36     21.724331   16.216556   18.945215 C.3        1 MOL1         0.0138
     123    H58     21.552097   17.299169   18.989696 H          1 MOL1         0.0794
     124    H59     20.851324   15.774671   18.446461 H          1 MOL1         0.0794
     125    O30     22.905450   15.950629   18.182247 O.3        1 MOL1        -0.5486
     126    H60     23.507894   16.714980   18.324581 H          1 MOL1         0.3769
     127    C1      17.828856   19.676764   24.604102 C.2        1 MOL1         0.6173
     128    O1      17.258978   20.608293   25.142936 O.co2      1 MOL1        -0.6755
     129    O2      17.235027   18.786632   24.025818 O.co2      1 MOL1        -0.6755
     130    C2      19.315666   19.693546   24.591588 C.2        1 MOL1        -0.1504
     131    H1      19.789883   20.488735   25.162028 H          1 MOL1         0.0814
     132    C3      20.064179   18.787484   23.924158 C.2        1 MOL1        -0.1394
     133    H2      19.592944   18.003244   23.337177 H          1 MOL1         0.0817
     134    C4      21.573993   18.765822   23.938063 C.3        1 MOL1        -0.1849
     135    H3      21.968684   19.790149   23.952471 H          1 MOL1         0.0736
     136    H4      21.935658   18.296301   23.016175 H          1 MOL1         0.0736
     137    C5      22.101160   17.983182   25.157725 C.3        1 MOL1        -0.1866
     138    H5      21.731939   18.451837   26.080211 H          1 MOL1         0.0738
     139    H6      21.700171   16.960291   25.139416 H          1 MOL1         0.0738
     140    C6      23.641324   17.932593   25.191654 C.3        1 MOL1        -0.2879
     141    H7      24.036015   17.425783   24.303280 H          1 MOL1         0.0750
     142    H8      24.067089   18.943690   25.230705 H          1 MOL1         0.0750
     143    H9      23.990159   17.383153   26.075213 H          1 MOL1         0.0750
@<TRIPOS>BOND
    1     1     2    1
    2     1     3    1
    3     1     4    1
    4     4     5    1
    5     4     6    1
    6     6     7    1
    7     4     8    1
    8     8     9    1
    9     8    10    1
   10    10    11    1
   11     8    12    1
   12    12    13    1
   13    12    14    1
   14    14    15    1
   15     1    16    1
   16    14    16    1
   17    14    17    1
   18    17    18    1
   19    17    19    1
   20    17    20    1
   21    20    21    1
   22    22    23    1
   23    22    24    1
   24    22    25    1
   25    25    26    1
   26    25    27    1
   27    27    28    1
   28    25    29    1
   29    29    30    1
   30    29    31    1
   31    31    32    1
   32     3    33    1
   33    29    33    1
   34    33    34    1
   35    33    35    1
   36    35    36    1
   37    22    37    1
   38    35    37    1
   39    35    38    1
   40    38    39    1
   41    38    40    1
   42    38    41    1
   43    41    42    1
   44    43    44    1
   45    43    45    1
   46    43    46    1
   47    46    47    1
   48    46    48    1
   49    48    49    1
   50    46    50    1
   51    50    51    1
   52    50    52    1
   53    52    53    1
   54    24    54    1
   55    50    54    1
   56    54    55    1
   57    54    56    1
   58    56    57    1
   59    43    58    1
   60    56    58    1
   61    56    59    1
   62    59    60    1
   63    59    61    1
   64    59    62    1
   65    62    63    1
   66    64    65    1
   67    64    66    1
   68    64    67    1
   69    67    68    1
   70    67    69    1
   71    69    70    1
   72    67    71    1
   73    71    72    1
   74    71    73    1
   75    73    74    1
   76    45    75    1
   77    71    75    1
   78    75    76    1
   79    75    77    1
   80    77    78    1
   81    64    79    1
   82    77    79    1
   83    77    80    1
   84    80    81    1
   85    80    82    1
   86    80    83    1
   87    83    84    1
   88    85    86    1
   89    85    87    1
   90    85    88    1
   91    88    89    1
   92    88    90    1
   93    90    91    1
   94    88    92    1
   95    92    93    1
   96    92    94    1
   97    94    95    1
   98    66    96    1
   99    92    96    1
  100    96    97    1
  101    96    98    1
  102    98    99    1
  103    85   100    1
  104    98   100    1
  105    98   101    1
  106   101   102    1
  107   101   103    1
  108   101   104    1
  109   104   105    1
  110   106   107    1
  111    12   108    1
  112   106   108    1
  113   106   109    1
  114   109   110    1
  115   109   111    1
  116   111   112    1
  117   109   113    1
  118   113   114    1
  119   113   115    1
  120   115   116    1
  121    87   117    1
  122   113   117    1
  123   117   118    1
  124   117   119    1
  125   119   120    1
  126   106   121    1
  127   119   121    1
  128   119   122    1
  129   122   123    1
  130   122   124    1
  131   122   125    1
  132   125   126    1
  133   127   128    1
  134   127   129    2
  135   127   130    1
  136   130   131    1
  137   130   132    2
  138   132   133    1
  139   132   134    1
  140   134   135    1
  141   134   136    1
  142   134   137    1
  143   137   138    1
  144   137   139    1
  145   137   140    1
  146   140   141    1
  147   140   142    1
  148   140   143    1
@<TRIPOS>SUBSTRUCTURE
       1 MOL1            1 RESIDUE      1      MOL     
       2 MOL1          143 RESIDUE      1      MOL     
@<SCITEGIC>MOL_PROPERTY
feprocess Rank
SciTegic.value.IntegerValue
180

@<SCITEGIC>MOL_PROPERTY
Conf_Id
SciTegic.value.IntegerValue
433

@<SCITEGIC>MOL_PROPERTY
Probability
SciTegic.value.DoubleValue
0.00

@<SCITEGIC>MOL_PROPERTY
G
SciTegic.value.DoubleValue
506.269

@<SCITEGIC>MOL_PROPERTY
E
SciTegic.value.DoubleValue
323.795

@<SCITEGIC>MOL_PROPERTY
-TS
SciTegic.value.DoubleValue
182.474

@<SCITEGIC>MOL_PROPERTY
U+W
SciTegic.value.DoubleValue
197.707

@<SCITEGIC>MOL_PROPERTY
U
SciTegic.value.DoubleValue
267.309

@<SCITEGIC>MOL_PROPERTY
W
SciTegic.value.DoubleValue
-69.602

@<SCITEGIC>MOL_PROPERTY
W(PB)
SciTegic.value.DoubleValue
-75.519

@<SCITEGIC>MOL_PROPERTY
W(SA)
SciTegic.value.DoubleValue
5.918

@<SCITEGIC>MOL_PROPERTY
Valence
SciTegic.value.DoubleValue
149.635

@<SCITEGIC>MOL_PROPERTY
Coulomb
SciTegic.value.DoubleValue
140.213

@<SCITEGIC>MOL_PROPERTY
VdW
SciTegic.value.DoubleValue
-22.539

@<SCITEGIC>MOL_PROPERTY
VdW6
SciTegic.value.DoubleValue
-179.297

@<SCITEGIC>MOL_PROPERTY
VdW12
SciTegic.value.DoubleValue
156.758

@<SCITEGIC>MOL_PROPERTY
Bond
SciTegic.value.DoubleValue
5.194

@<SCITEGIC>MOL_PROPERTY
Angle
SciTegic.value.DoubleValue
16.903

@<SCITEGIC>MOL_PROPERTY
Pdih
SciTegic.value.DoubleValue
127.527

@<SCITEGIC>MOL_PROPERTY
Idih
SciTegic.value.DoubleValue
0.011

@<SCITEGIC>MOL_PROPERTY
Tether
SciTegic.value.DoubleValue
0.000

@<TRIPOS>MOLECULE
CD_guest-s19_fast_vm2_rndm.mol2 : feprocess host+ligand conformer 181
         143         148           2
SMALL
USER_CHARGES
 
@<TRIPOS>ATOM
       1    C1      16.202327   15.383492   20.407341 C.3        1 MOL1         0.2972
       2    H1      15.193640   15.316934   19.980428 H          1 MOL1         0.0751
       3    O1      16.427147   16.645778   21.057732 O.3        1 MOL1        -0.3740
       4    C2      16.450519   14.251547   21.437246 C.3        1 MOL1         0.1003
       5    H2      16.341638   13.296509   20.907078 H          1 MOL1         0.0783
       6    O2      15.496917   14.306600   22.509991 O.3        1 MOL1        -0.5519
       7    H3      15.549403   15.214188   22.904675 H          1 MOL1         0.3769
       8    C3      17.893128   14.329898   21.992616 C.3        1 MOL1         0.1053
       9    H4      17.981080   15.248819   22.589218 H          1 MOL1         0.0783
      10    O3      18.153817   13.189827   22.819084 O.3        1 MOL1        -0.5519
      11    H5      17.362405   13.103135   23.395467 H          1 MOL1         0.3769
      12    C4      18.932869   14.399325   20.846887 C.3        1 MOL1         0.1018
      13    H6      18.983295   13.415327   20.362591 H          1 MOL1         0.0783
      14    C5      18.566985   15.479642   19.789052 C.3        1 MOL1         0.1043
      15    H7      18.656151   16.462536   20.263988 H          1 MOL1         0.0783
      16    O4      17.194994   15.270730   19.365006 O.3        1 MOL1        -0.3740
      17    C6      19.470917   15.519907   18.530620 C.3        1 MOL1         0.0138
      18    H8      20.311839   16.197132   18.727458 H          1 MOL1         0.0794
      19    H9      18.899514   15.965889   17.705524 H          1 MOL1         0.0794
      20    O5      19.966287   14.231330   18.149001 O.3        1 MOL1        -0.5486
      21    H10     20.749555   14.052734   18.719128 H          1 MOL1         0.3769
      22    C7      14.758275   20.263649   22.026459 C.3        1 MOL1         0.2972
      23    H11     14.117940   21.119868   22.275384 H          1 MOL1         0.0751
      24    O6      16.134621   20.654934   21.874515 O.3        1 MOL1        -0.3740
      25    C8      14.686549   19.209452   23.155706 C.3        1 MOL1         0.1003
      26    H12     13.645956   18.867202   23.226439 H          1 MOL1         0.0783
      27    O7      15.082697   19.789339   24.408712 O.3        1 MOL1        -0.5519
      28    H13     15.638130   20.578514   24.194937 H          1 MOL1         0.3769
      29    C9      15.572782   17.988668   22.819314 C.3        1 MOL1         0.1053
      30    H14     16.621924   18.310874   22.853661 H          1 MOL1         0.0783
      31    O8      15.354450   16.960662   23.790746 O.3        1 MOL1        -0.5519
      32    H15     15.415263   17.418578   24.658776 H          1 MOL1         0.3769
      33    C10     15.282246   17.441162   21.399385 C.3        1 MOL1         0.1018
      34    H16     14.357906   16.848710   21.426340 H          1 MOL1         0.0783
      35    C11     15.176429   18.559575   20.324500 C.3        1 MOL1         0.1043
      36    H17     16.186725   18.946506   20.137594 H          1 MOL1         0.0783
      37    O9      14.332406   19.640073   20.796232 O.3        1 MOL1        -0.3740
      38    C12     14.607582   18.056671   18.978233 C.3        1 MOL1         0.0138
      39    H18     13.886732   17.248118   19.157015 H          1 MOL1         0.0794
      40    H19     14.062437   18.878415   18.494713 H          1 MOL1         0.0794
      41    O10     15.658282   17.620067   18.109565 O.3        1 MOL1        -0.5486
      42    H20     16.249187   17.012689   18.613152 H          1 MOL1         0.3769
      43    C13     18.456185   24.066265   21.282814 C.3        1 MOL1         0.2972
      44    H21     18.793486   25.086900   21.061132 H          1 MOL1         0.0751
      45    O11     19.565450   23.193678   21.563063 O.3        1 MOL1        -0.3740
      46    C14     17.553759   24.076236   22.541220 C.3        1 MOL1         0.1003
      47    H22     16.695378   24.728382   22.334115 H          1 MOL1         0.0783
      48    O12     18.282609   24.587110   23.668389 O.3        1 MOL1        -0.5519
      49    H23     19.224202   24.322602   23.533614 H          1 MOL1         0.3769
      50    C15     17.020984   22.656262   22.841493 C.3        1 MOL1         0.1053
      51    H24     17.873878   22.024644   23.121156 H          1 MOL1         0.0783
      52    O13     16.081482   22.709261   23.920314 O.3        1 MOL1        -0.5519
      53    H25     16.510077   23.272027   24.602967 H          1 MOL1         0.3769
      54    C16     16.358014   22.044417   21.585516 C.3        1 MOL1         0.1018
      55    H26     15.421403   22.581341   21.385573 H          1 MOL1         0.0783
      56    C17     17.276711   22.140311   20.336228 C.3        1 MOL1         0.1043
      57    H27     18.151224   21.497731   20.504496 H          1 MOL1         0.0783
      58    O14     17.709242   23.516830   20.174488 O.3        1 MOL1        -0.3740
      59    C18     16.615517   21.676380   19.010903 C.3        1 MOL1         0.0138
      60    H28     16.788991   20.600088   18.888341 H          1 MOL1         0.0794
      61    H29     17.125915   22.169855   18.173368 H          1 MOL1         0.0794
      62    O15     15.208703   21.945208   18.957694 O.3        1 MOL1        -0.5486
      63    H30     14.768333   21.265573   19.518345 H          1 MOL1         0.3769
      64    C19     23.575564   22.564394   20.712832 C.3        1 MOL1         0.2972
      65    H31     24.608422   22.606295   20.344070 H          1 MOL1         0.0751
      66    O16     23.298046   21.331352   21.399095 O.3        1 MOL1        -0.3740
      67    C20     23.290149   23.718504   21.705666 C.3        1 MOL1         0.1003
      68    H32     23.449188   24.663668   21.170627 H          1 MOL1         0.0783
      69    O17     24.176251   23.653158   22.835420 O.3        1 MOL1        -0.5519
      70    H33     24.127809   22.729300   23.191098 H          1 MOL1         0.3769
      71    C21     21.816939   23.671772   22.179756 C.3        1 MOL1         0.1053
      72    H34     21.694620   22.777538   22.804195 H          1 MOL1         0.0783
      73    O18     21.523755   24.839905   22.954020 O.3        1 MOL1        -0.5519
      74    H35     22.274484   24.927928   23.581976 H          1 MOL1         0.3769
      75    C22     20.830304   23.566955   20.988255 C.3        1 MOL1         0.1018
      76    H36     20.787718   24.545783   20.493197 H          1 MOL1         0.0783
      77    C23     21.252060   22.481017   19.955212 C.3        1 MOL1         0.1043
      78    H37     21.125491   21.491710   20.415528 H          1 MOL1         0.0783
      79    O19     22.645600   22.683485   19.616218 O.3        1 MOL1        -0.3740
      80    C24     20.438489   22.467847   18.635348 C.3        1 MOL1         0.0138
      81    H38     19.571885   21.810124   18.764918 H          1 MOL1         0.0794
      82    H39     21.056869   22.012587   17.850325 H          1 MOL1         0.0794
      83    O20     19.997046   23.768108   18.226563 O.3        1 MOL1        -0.5486
      84    H40     19.175338   23.956055   18.735886 H          1 MOL1         0.3769
      85    C25     24.974303   17.641436   22.219231 C.3        1 MOL1         0.2972
      86    H41     25.646861   16.798699   22.424505 H          1 MOL1         0.0751
      87    O21     23.604675   17.213468   22.128666 O.3        1 MOL1        -0.3740
      88    C26     25.065318   18.675589   23.367394 C.3        1 MOL1         0.1003
      89    H42     26.103680   19.028213   23.417029 H          1 MOL1         0.0783
      90    O22     24.709505   18.060455   24.615698 O.3        1 MOL1        -0.5519
      91    H43     24.071687   17.337909   24.399265 H          1 MOL1         0.3769
      92    C27     24.156599   19.895236   23.085982 C.3        1 MOL1         0.1053
      93    H44     23.109658   19.563464   23.133540 H          1 MOL1         0.0783
      94    O23     24.391694   20.905803   24.073805 O.3        1 MOL1        -0.5519
      95    H45     24.345882   20.433823   24.934573 H          1 MOL1         0.3769
      96    C28     24.416807   20.475205   21.675734 C.3        1 MOL1         0.1018
      97    H46     25.365843   21.027485   21.691262 H          1 MOL1         0.0783
      98    C29     24.448050   19.376486   20.577703 C.3        1 MOL1         0.1043
      99    H47     23.424135   18.997610   20.462776 H          1 MOL1         0.0783
     100    O24     25.325149   18.291904   20.980538 O.3        1 MOL1        -0.3740
     101    C30     24.906816   19.883673   19.189943 C.3        1 MOL1         0.0138
     102    H48     24.106958   20.505312   18.765221 H          1 MOL1         0.0794
     103    H49     25.031061   19.018907   18.524561 H          1 MOL1         0.0794
     104    O25     26.125442   20.634851   19.264774 O.3        1 MOL1        -0.5486
     105    H50     26.393729   20.858349   18.347078 H          1 MOL1         0.3769
     106    C31     21.279342   13.866192   21.261073 C.3        1 MOL1         0.2972
     107    H51     20.937292   12.859208   20.989924 H          1 MOL1         0.0751
     108    O26     20.174377   14.762440   21.474047 O.3        1 MOL1        -0.3740
     109    C32     22.085273   13.806624   22.581144 C.3        1 MOL1         0.1003
     110    H52     22.941704   13.139025   22.420359 H          1 MOL1         0.0783
     111    O27     21.265300   13.285872   23.639667 O.3        1 MOL1        -0.5519
     112    H53     20.335184   13.547010   23.430027 H          1 MOL1         0.3769
     113    C33     22.628385   15.205524   22.954528 C.3        1 MOL1         0.1053
     114    H54     21.773638   15.852048   23.197180 H          1 MOL1         0.0783
     115    O28     23.492432   15.097835   24.091206 O.3        1 MOL1        -0.5519
     116    H55     23.003416   14.533164   24.730068 H          1 MOL1         0.3769
     117    C34     23.389900   15.839175   21.765674 C.3        1 MOL1         0.1018
     118    H56     24.333185   15.295649   21.623708 H          1 MOL1         0.0783
     119    C35     22.559273   15.786451   20.450530 C.3        1 MOL1         0.1043
     120    H57     21.684204   16.438050   20.571794 H          1 MOL1         0.0783
     121    O29     22.119430   14.421411   20.226583 O.3        1 MOL1        -0.3740
     122    C36     23.303315   16.264864   19.177037 C.3        1 MOL1         0.0138
     123    H58     23.143088   17.343674   19.063351 H          1 MOL1         0.0794
     124    H59     22.839745   15.789219   18.302731 H          1 MOL1         0.0794
     125    O30     24.707533   15.982722   19.201592 O.3        1 MOL1        -0.5486
     126    H60     25.122931   16.668405   19.775284 H          1 MOL1         0.3769
     127    C1      19.853703   18.997132   19.768669 C.2        1 MOL1         0.6173
     128    O1      19.017373   19.338589   18.955799 O.co2      1 MOL1        -0.6755
     129    O2      21.019357   18.785618   19.486990 O.co2      1 MOL1        -0.6755
     130    C2      19.389842   18.807955   21.168449 C.2        1 MOL1        -0.1504
     131    H1      18.331380   18.977191   21.342466 H          1 MOL1         0.0814
     132    C3      20.198432   18.437937   22.185474 C.2        1 MOL1        -0.1394
     133    H2      21.260413   18.278777   22.016105 H          1 MOL1         0.0817
     134    C4      19.726092   18.223576   23.607849 C.3        1 MOL1        -0.1849
     135    H3      20.561712   17.860792   24.220798 H          1 MOL1         0.0736
     136    H4      18.964422   17.432876   23.625449 H          1 MOL1         0.0736
     137    C5      19.146050   19.505407   24.246415 C.3        1 MOL1        -0.1866
     138    H5      18.255296   19.823621   23.690657 H          1 MOL1         0.0738
     139    H6      18.811891   19.280292   25.268107 H          1 MOL1         0.0738
     140    C6      20.170740   20.658854   24.286103 C.3        1 MOL1        -0.2879
     141    H7      21.072302   20.366089   24.839333 H          1 MOL1         0.0750
     142    H8      20.470728   20.944248   23.270353 H          1 MOL1         0.0750
     143    H9      19.742342   21.543814   24.773399 H          1 MOL1         0.0750
@<TRIPOS>BOND
    1     1     2    1
    2     1     3    1
    3     1     4    1
    4     4     5    1
    5     4     6    1
    6     6     7    1
    7     4     8    1
    8     8     9    1
    9     8    10    1
   10    10    11    1
   11     8    12    1
   12    12    13    1
   13    12    14    1
   14    14    15    1
   15     1    16    1
   16    14    16    1
   17    14    17    1
   18    17    18    1
   19    17    19    1
   20    17    20    1
   21    20    21    1
   22    22    23    1
   23    22    24    1
   24    22    25    1
   25    25    26    1
   26    25    27    1
   27    27    28    1
   28    25    29    1
   29    29    30    1
   30    29    31    1
   31    31    32    1
   32     3    33    1
   33    29    33    1
   34    33    34    1
   35    33    35    1
   36    35    36    1
   37    22    37    1
   38    35    37    1
   39    35    38    1
   40    38    39    1
   41    38    40    1
   42    38    41    1
   43    41    42    1
   44    43    44    1
   45    43    45    1
   46    43    46    1
   47    46    47    1
   48    46    48    1
   49    48    49    1
   50    46    50    1
   51    50    51    1
   52    50    52    1
   53    52    53    1
   54    24    54    1
   55    50    54    1
   56    54    55    1
   57    54    56    1
   58    56    57    1
   59    43    58    1
   60    56    58    1
   61    56    59    1
   62    59    60    1
   63    59    61    1
   64    59    62    1
   65    62    63    1
   66    64    65    1
   67    64    66    1
   68    64    67    1
   69    67    68    1
   70    67    69    1
   71    69    70    1
   72    67    71    1
   73    71    72    1
   74    71    73    1
   75    73    74    1
   76    45    75    1
   77    71    75    1
   78    75    76    1
   79    75    77    1
   80    77    78    1
   81    64    79    1
   82    77    79    1
   83    77    80    1
   84    80    81    1
   85    80    82    1
   86    80    83    1
   87    83    84    1
   88    85    86    1
   89    85    87    1
   90    85    88    1
   91    88    89    1
   92    88    90    1
   93    90    91    1
   94    88    92    1
   95    92    93    1
   96    92    94    1
   97    94    95    1
   98    66    96    1
   99    92    96    1
  100    96    97    1
  101    96    98    1
  102    98    99    1
  103    85   100    1
  104    98   100    1
  105    98   101    1
  106   101   102    1
  107   101   103    1
  108   101   104    1
  109   104   105    1
  110   106   107    1
  111    12   108    1
  112   106   108    1
  113   106   109    1
  114   109   110    1
  115   109   111    1
  116   111   112    1
  117   109   113    1
  118   113   114    1
  119   113   115    1
  120   115   116    1
  121    87   117    1
  122   113   117    1
  123   117   118    1
  124   117   119    1
  125   119   120    1
  126   106   121    1
  127   119   121    1
  128   119   122    1
  129   122   123    1
  130   122   124    1
  131   122   125    1
  132   125   126    1
  133   127   128    1
  134   127   129    2
  135   127   130    1
  136   130   131    1
  137   130   132    2
  138   132   133    1
  139   132   134    1
  140   134   135    1
  141   134   136    1
  142   134   137    1
  143   137   138    1
  144   137   139    1
  145   137   140    1
  146   140   141    1
  147   140   142    1
  148   140   143    1
@<TRIPOS>SUBSTRUCTURE
       1 MOL1            1 RESIDUE      1      MOL     
       2 MOL1          143 RESIDUE      1      MOL     
@<SCITEGIC>MOL_PROPERTY
feprocess Rank
SciTegic.value.IntegerValue
181

@<SCITEGIC>MOL_PROPERTY
Conf_Id
SciTegic.value.IntegerValue
853

@<SCITEGIC>MOL_PROPERTY
Probability
SciTegic.value.DoubleValue
0.00

@<SCITEGIC>MOL_PROPERTY
G
SciTegic.value.DoubleValue
506.283

@<SCITEGIC>MOL_PROPERTY
E
SciTegic.value.DoubleValue
324.337

@<SCITEGIC>MOL_PROPERTY
-TS
SciTegic.value.DoubleValue
181.946

@<SCITEGIC>MOL_PROPERTY
U+W
SciTegic.value.DoubleValue
198.249

@<SCITEGIC>MOL_PROPERTY
U
SciTegic.value.DoubleValue
267.079

@<SCITEGIC>MOL_PROPERTY
W
SciTegic.value.DoubleValue
-68.830

@<SCITEGIC>MOL_PROPERTY
W(PB)
SciTegic.value.DoubleValue
-74.620

@<SCITEGIC>MOL_PROPERTY
W(SA)
SciTegic.value.DoubleValue
5.789

@<SCITEGIC>MOL_PROPERTY
Valence
SciTegic.value.DoubleValue
153.489

@<SCITEGIC>MOL_PROPERTY
Coulomb
SciTegic.value.DoubleValue
144.598

@<SCITEGIC>MOL_PROPERTY
VdW
SciTegic.value.DoubleValue
-31.008

@<SCITEGIC>MOL_PROPERTY
VdW6
SciTegic.value.DoubleValue
-186.010

@<SCITEGIC>MOL_PROPERTY
VdW12
SciTegic.value.DoubleValue
155.002

@<SCITEGIC>MOL_PROPERTY
Bond
SciTegic.value.DoubleValue
4.336

@<SCITEGIC>MOL_PROPERTY
Angle
SciTegic.value.DoubleValue
13.100

@<SCITEGIC>MOL_PROPERTY
Pdih
SciTegic.value.DoubleValue
136.051

@<SCITEGIC>MOL_PROPERTY
Idih
SciTegic.value.DoubleValue
0.001

@<SCITEGIC>MOL_PROPERTY
Tether
SciTegic.value.DoubleValue
0.000

@<TRIPOS>MOLECULE
CD_guest-s19_fast_vm2_rndm.mol2 : feprocess host+ligand conformer 182
         143         148           2
SMALL
USER_CHARGES
 
@<TRIPOS>ATOM
       1    C1      16.283409   15.180045   21.292952 C.3        1 MOL1         0.2972
       2    H1      15.234065   15.063212   20.999135 H          1 MOL1         0.0751
       3    O1      16.483826   16.417199   22.017811 O.3        1 MOL1        -0.3740
       4    C2      16.698176   14.004184   22.216363 C.3        1 MOL1         0.1003
       5    H2      16.516385   13.071217   21.667057 H          1 MOL1         0.0783
       6    O2      15.916543   14.008549   23.419533 O.3        1 MOL1        -0.5519
       7    H3      15.915404   14.938930   23.736177 H          1 MOL1         0.3769
       8    C3      18.204360   14.073277   22.561744 C.3        1 MOL1         0.1053
       9    H4      18.371169   14.963531   23.182967 H          1 MOL1         0.0783
      10    O3      18.591589   12.900782   23.286140 O.3        1 MOL1        -0.5519
      11    H5      17.893262   12.774139   23.966056 H          1 MOL1         0.3769
      12    C4      19.061556   14.209834   21.282007 C.3        1 MOL1         0.1018
      13    H6      19.036511   13.258660   20.733899 H          1 MOL1         0.0783
      14    C5      18.545384   15.353242   20.365878 C.3        1 MOL1         0.1043
      15    H7      18.695467   16.300462   20.894593 H          1 MOL1         0.0783
      16    O4      17.132012   15.163148   20.122425 O.3        1 MOL1        -0.3740
      17    C6      19.255687   15.474744   18.992161 C.3        1 MOL1         0.0138
      18    H8      20.100861   16.165744   19.091357 H          1 MOL1         0.0794
      19    H9      18.558690   15.934570   18.278876 H          1 MOL1         0.0794
      20    O5      19.716484   14.219538   18.479661 O.3        1 MOL1        -0.5486
      21    H10     20.527815   13.980484   18.985599 H          1 MOL1         0.3769
      22    C7      15.364153   20.376045   21.255360 C.3        1 MOL1         0.2972
      23    H11     15.898243   20.390316   20.299962 H          1 MOL1         0.0751
      24    O6      14.847291   21.699667   21.537108 O.3        1 MOL1        -0.3740
      25    C8      14.188483   19.365121   21.158616 C.3        1 MOL1         0.1003
      26    H12     13.857746   19.371802   20.111754 H          1 MOL1         0.0783
      27    O7      13.094159   19.746100   22.006230 O.3        1 MOL1        -0.5519
      28    H13     13.215567   20.711840   22.160765 H          1 MOL1         0.3769
      29    C9      14.615543   17.917644   21.533606 C.3        1 MOL1         0.1053
      30    H14     14.410145   17.780912   22.604559 H          1 MOL1         0.0783
      31    O8      13.816385   17.004126   20.775128 O.3        1 MOL1        -0.5519
      32    H15     12.883480   17.217968   20.994582 H          1 MOL1         0.3769
      33    C10     16.137394   17.649878   21.337048 C.3        1 MOL1         0.1018
      34    H16     16.353940   17.585878   20.264026 H          1 MOL1         0.0783
      35    C11     17.014322   18.763814   21.994743 C.3        1 MOL1         0.1043
      36    H17     17.362291   18.375309   22.958393 H          1 MOL1         0.0783
      37    O9      16.242659   19.944250   22.298353 O.3        1 MOL1        -0.3740
      38    C12     18.282241   19.180205   21.197727 C.3        1 MOL1         0.0138
      39    H18     19.050515   18.406494   21.312331 H          1 MOL1         0.0794
      40    H19     18.688050   20.091323   21.659525 H          1 MOL1         0.0794
      41    O10     18.029703   19.413752   19.805599 O.3        1 MOL1        -0.5486
      42    H20     18.010604   18.548931   19.346913 H          1 MOL1         0.3769
      43    C13     18.373830   24.161129   21.707692 C.3        1 MOL1         0.2972
      44    H21     18.962802   25.087068   21.735258 H          1 MOL1         0.0751
      45    O11     19.238358   23.005035   21.626945 O.3        1 MOL1        -0.3740
      46    C14     17.476864   24.097800   22.973145 C.3        1 MOL1         0.1003
      47    H22     16.793948   24.954801   22.910713 H          1 MOL1         0.0783
      48    O12     18.239303   24.244717   24.179151 O.3        1 MOL1        -0.5519
      49    H23     18.746965   23.403228   24.334390 H          1 MOL1         0.3769
      50    C15     16.606099   22.818400   22.959393 C.3        1 MOL1         0.1053
      51    H24     17.282587   21.956764   22.943615 H          1 MOL1         0.0783
      52    O13     15.781642   22.775298   24.127243 O.3        1 MOL1        -0.5519
      53    H25     16.399134   22.506965   24.849525 H          1 MOL1         0.3769
      54    C16     15.752055   22.836799   21.660837 C.3        1 MOL1         0.1018
      55    H26     15.131583   23.740149   21.715459 H          1 MOL1         0.0783
      56    C17     16.664929   22.970795   20.406730 C.3        1 MOL1         0.1043
      57    H27     17.299994   22.079032   20.351118 H          1 MOL1         0.0783
      58    O14     17.510306   24.144856   20.545931 O.3        1 MOL1        -0.3740
      59    C18     15.887358   23.091345   19.071939 C.3        1 MOL1         0.0138
      60    H28     15.467234   22.110122   18.815299 H          1 MOL1         0.0794
      61    H29     16.594070   23.355609   18.274162 H          1 MOL1         0.0794
      62    O15     14.837133   24.062657   19.139255 O.3        1 MOL1        -0.5486
      63    H30     14.154502   23.716561   19.754346 H          1 MOL1         0.3769
      64    C19     23.152142   22.217153   20.240316 C.3        1 MOL1         0.2972
      65    H31     24.109763   22.305515   19.711520 H          1 MOL1         0.0751
      66    O16     23.007546   20.916013   20.846323 O.3        1 MOL1        -0.3740
      67    C20     23.014108   23.318715   21.327830 C.3        1 MOL1         0.1003
      68    H32     23.053186   24.288073   20.814775 H          1 MOL1         0.0783
      69    O17     24.096471   23.256180   22.269380 O.3        1 MOL1        -0.5519
      70    H33     23.968664   22.430851   22.800006 H          1 MOL1         0.3769
      71    C21     21.631681   23.206654   22.023261 C.3        1 MOL1         0.1053
      72    H34     21.585107   22.235676   22.534407 H          1 MOL1         0.0783
      73    O18     21.448173   24.259811   22.974128 O.3        1 MOL1        -0.5519
      74    H35     20.921634   23.841335   23.704389 H          1 MOL1         0.3769
      75    C22     20.500193   23.256611   20.964349 C.3        1 MOL1         0.1018
      76    H36     20.515972   24.252433   20.501888 H          1 MOL1         0.0783
      77    C23     20.727602   22.199887   19.847382 C.3        1 MOL1         0.1043
      78    H37     20.636346   21.197186   20.285969 H          1 MOL1         0.0783
      79    O19     22.061823   22.378939   19.307436 O.3        1 MOL1        -0.3740
      80    C24     19.733059   22.284268   18.661862 C.3        1 MOL1         0.0138
      81    H38     18.826180   21.728732   18.922379 H          1 MOL1         0.0794
      82    H39     20.176763   21.769726   17.799281 H          1 MOL1         0.0794
      83    O20     19.393760   23.630997   18.307906 O.3        1 MOL1        -0.5486
      84    H40     18.798521   23.976015   19.013995 H          1 MOL1         0.3769
      85    C25     25.033198   17.506754   21.927049 C.3        1 MOL1         0.2972
      86    H41     25.736044   16.709341   22.201508 H          1 MOL1         0.0751
      87    O21     23.698087   17.008077   21.743197 O.3        1 MOL1        -0.3740
      88    C26     24.976216   18.577888   23.039196 C.3        1 MOL1         0.1003
      89    H42     25.968857   19.041481   23.109268 H          1 MOL1         0.0783
      90    O22     24.640499   17.977756   24.300507 O.3        1 MOL1        -0.5519
      91    H43     24.201440   17.115613   24.102064 H          1 MOL1         0.3769
      92    C27     23.953990   19.677840   22.670682 C.3        1 MOL1         0.1053
      93    H44     22.951785   19.228701   22.672883 H          1 MOL1         0.0783
      94    O23     24.015634   20.715959   23.652578 O.3        1 MOL1        -0.5519
      95    H45     23.988885   20.246537   24.516245 H          1 MOL1         0.3769
      96    C28     24.222398   20.253402   21.254850 C.3        1 MOL1         0.1018
      97    H46     25.072032   20.946409   21.314959 H          1 MOL1         0.0783
      98    C29     24.509715   19.152920   20.190722 C.3        1 MOL1         0.1043
      99    H47     23.554114   18.668217   19.956560 H          1 MOL1         0.0783
     100    O24     25.432179   18.154333   20.701741 O.3        1 MOL1        -0.3740
     101    C30     25.075125   19.703451   18.859705 C.3        1 MOL1         0.0138
     102    H48     24.275790   20.248245   18.339410 H          1 MOL1         0.0794
     103    H49     25.358960   18.855365   18.222059 H          1 MOL1         0.0794
     104    O25     26.198257   20.568524   19.067054 O.3        1 MOL1        -0.5486
     105    H50     26.557021   20.808635   18.184857 H          1 MOL1         0.3769
     106    C31     21.425174   13.599113   21.421859 C.3        1 MOL1         0.2972
     107    H51     21.021538   12.590320   21.265879 H          1 MOL1         0.0751
     108    O26     20.384963   14.549152   21.727032 O.3        1 MOL1        -0.3740
     109    C32     22.413740   13.593696   22.613067 C.3        1 MOL1         0.1003
     110    H52     23.243308   12.921246   22.358818 H          1 MOL1         0.0783
     111    O27     21.759182   13.117906   23.799493 O.3        1 MOL1        -0.5519
     112    H53     20.801079   13.336659   23.701889 H          1 MOL1         0.3769
     113    C33     22.991524   15.010225   22.839472 C.3        1 MOL1         0.1053
     114    H54     22.172200   15.660485   23.167630 H          1 MOL1         0.0783
     115    O28     24.002600   14.972298   23.850626 O.3        1 MOL1        -0.5519
     116    H55     23.612797   14.438240   24.578404 H          1 MOL1         0.3769
     117    C34     23.566322   15.597187   21.527590 C.3        1 MOL1         0.1018
     118    H56     24.525787   15.112403   21.304561 H          1 MOL1         0.0783
     119    C35     22.600856   15.433885   20.322436 C.3        1 MOL1         0.1043
     120    H57     21.747343   16.099555   20.499491 H          1 MOL1         0.0783
     121    O29     22.129350   14.064462   20.249253 O.3        1 MOL1        -0.3740
     122    C36     23.200487   15.838437   18.949098 C.3        1 MOL1         0.0138
     123    H58     22.961101   16.892753   18.762684 H          1 MOL1         0.0794
     124    H59     22.699702   15.258612   18.162155 H          1 MOL1         0.0794
     125    O30     24.618707   15.651527   18.869170 O.3        1 MOL1        -0.5486
     126    H60     25.036241   16.349412   19.424750 H          1 MOL1         0.3769
     127    C1      19.527922   21.321577   24.797291 C.2        1 MOL1         0.6173
     128    O1      20.194065   22.330364   24.667947 O.co2      1 MOL1        -0.6755
     129    O2      18.375984   21.352705   25.189282 O.co2      1 MOL1        -0.6755
     130    C2      20.138325   20.034179   24.365866 C.2        1 MOL1        -0.1504
     131    H1      21.140542   20.103470   23.952166 H          1 MOL1         0.0814
     132    C3      19.517175   18.837160   24.462460 C.2        1 MOL1        -0.1394
     133    H2      18.517613   18.768782   24.890443 H          1 MOL1         0.0817
     134    C4      20.117772   17.526888   23.993708 C.3        1 MOL1        -0.1849
     135    H3      21.106060   17.693404   23.545207 H          1 MOL1         0.0736
     136    H4      19.488308   17.103820   23.202359 H          1 MOL1         0.0736
     137    C5      20.227978   16.495901   25.136572 C.3        1 MOL1        -0.1866
     138    H5      19.257245   16.394952   25.640817 H          1 MOL1         0.0738
     139    H6      20.462778   15.509490   24.716830 H          1 MOL1         0.0738
     140    C6      21.313931   16.878143   26.162896 C.3        1 MOL1        -0.2879
     141    H7      21.087284   17.842774   26.635167 H          1 MOL1         0.0750
     142    H8      21.382361   16.120470   26.953751 H          1 MOL1         0.0750
     143    H9      22.297338   16.956602   25.682298 H          1 MOL1         0.0750
@<TRIPOS>BOND
    1     1     2    1
    2     1     3    1
    3     1     4    1
    4     4     5    1
    5     4     6    1
    6     6     7    1
    7     4     8    1
    8     8     9    1
    9     8    10    1
   10    10    11    1
   11     8    12    1
   12    12    13    1
   13    12    14    1
   14    14    15    1
   15     1    16    1
   16    14    16    1
   17    14    17    1
   18    17    18    1
   19    17    19    1
   20    17    20    1
   21    20    21    1
   22    22    23    1
   23    22    24    1
   24    22    25    1
   25    25    26    1
   26    25    27    1
   27    27    28    1
   28    25    29    1
   29    29    30    1
   30    29    31    1
   31    31    32    1
   32     3    33    1
   33    29    33    1
   34    33    34    1
   35    33    35    1
   36    35    36    1
   37    22    37    1
   38    35    37    1
   39    35    38    1
   40    38    39    1
   41    38    40    1
   42    38    41    1
   43    41    42    1
   44    43    44    1
   45    43    45    1
   46    43    46    1
   47    46    47    1
   48    46    48    1
   49    48    49    1
   50    46    50    1
   51    50    51    1
   52    50    52    1
   53    52    53    1
   54    24    54    1
   55    50    54    1
   56    54    55    1
   57    54    56    1
   58    56    57    1
   59    43    58    1
   60    56    58    1
   61    56    59    1
   62    59    60    1
   63    59    61    1
   64    59    62    1
   65    62    63    1
   66    64    65    1
   67    64    66    1
   68    64    67    1
   69    67    68    1
   70    67    69    1
   71    69    70    1
   72    67    71    1
   73    71    72    1
   74    71    73    1
   75    73    74    1
   76    45    75    1
   77    71    75    1
   78    75    76    1
   79    75    77    1
   80    77    78    1
   81    64    79    1
   82    77    79    1
   83    77    80    1
   84    80    81    1
   85    80    82    1
   86    80    83    1
   87    83    84    1
   88    85    86    1
   89    85    87    1
   90    85    88    1
   91    88    89    1
   92    88    90    1
   93    90    91    1
   94    88    92    1
   95    92    93    1
   96    92    94    1
   97    94    95    1
   98    66    96    1
   99    92    96    1
  100    96    97    1
  101    96    98    1
  102    98    99    1
  103    85   100    1
  104    98   100    1
  105    98   101    1
  106   101   102    1
  107   101   103    1
  108   101   104    1
  109   104   105    1
  110   106   107    1
  111    12   108    1
  112   106   108    1
  113   106   109    1
  114   109   110    1
  115   109   111    1
  116   111   112    1
  117   109   113    1
  118   113   114    1
  119   113   115    1
  120   115   116    1
  121    87   117    1
  122   113   117    1
  123   117   118    1
  124   117   119    1
  125   119   120    1
  126   106   121    1
  127   119   121    1
  128   119   122    1
  129   122   123    1
  130   122   124    1
  131   122   125    1
  132   125   126    1
  133   127   128    1
  134   127   129    2
  135   127   130    1
  136   130   131    1
  137   130   132    2
  138   132   133    1
  139   132   134    1
  140   134   135    1
  141   134   136    1
  142   134   137    1
  143   137   138    1
  144   137   139    1
  145   137   140    1
  146   140   141    1
  147   140   142    1
  148   140   143    1
@<TRIPOS>SUBSTRUCTURE
       1 MOL1            1 RESIDUE      1      MOL     
       2 MOL1          143 RESIDUE      1      MOL     
@<SCITEGIC>MOL_PROPERTY
feprocess Rank
SciTegic.value.IntegerValue
182

@<SCITEGIC>MOL_PROPERTY
Conf_Id
SciTegic.value.IntegerValue
740

@<SCITEGIC>MOL_PROPERTY
Probability
SciTegic.value.DoubleValue
0.00

@<SCITEGIC>MOL_PROPERTY
G
SciTegic.value.DoubleValue
506.413

@<SCITEGIC>MOL_PROPERTY
E
SciTegic.value.DoubleValue
324.489

@<SCITEGIC>MOL_PROPERTY
-TS
SciTegic.value.DoubleValue
181.924

@<SCITEGIC>MOL_PROPERTY
U+W
SciTegic.value.DoubleValue
198.401

@<SCITEGIC>MOL_PROPERTY
U
SciTegic.value.DoubleValue
277.777

@<SCITEGIC>MOL_PROPERTY
W
SciTegic.value.DoubleValue
-79.376

@<SCITEGIC>MOL_PROPERTY
W(PB)
SciTegic.value.DoubleValue
-85.442

@<SCITEGIC>MOL_PROPERTY
W(SA)
SciTegic.value.DoubleValue
6.066

@<SCITEGIC>MOL_PROPERTY
Valence
SciTegic.value.DoubleValue
149.959

@<SCITEGIC>MOL_PROPERTY
Coulomb
SciTegic.value.DoubleValue
148.976

@<SCITEGIC>MOL_PROPERTY
VdW
SciTegic.value.DoubleValue
-21.159

@<SCITEGIC>MOL_PROPERTY
VdW6
SciTegic.value.DoubleValue
-181.134

@<SCITEGIC>MOL_PROPERTY
VdW12
SciTegic.value.DoubleValue
159.975

@<SCITEGIC>MOL_PROPERTY
Bond
SciTegic.value.DoubleValue
5.402

@<SCITEGIC>MOL_PROPERTY
Angle
SciTegic.value.DoubleValue
17.613

@<SCITEGIC>MOL_PROPERTY
Pdih
SciTegic.value.DoubleValue
126.932

@<SCITEGIC>MOL_PROPERTY
Idih
SciTegic.value.DoubleValue
0.013

@<SCITEGIC>MOL_PROPERTY
Tether
SciTegic.value.DoubleValue
0.000

@<TRIPOS>MOLECULE
CD_guest-s19_fast_vm2_rndm.mol2 : feprocess host+ligand conformer 183
         143         148           2
SMALL
USER_CHARGES
 
@<TRIPOS>ATOM
       1    C1      16.136614   15.355011   20.492213 C.3        1 MOL1         0.2972
       2    H1      16.048946   15.000543   19.459218 H          1 MOL1         0.0751
       3    O1      14.812155   15.761350   20.932235 O.3        1 MOL1        -0.3740
       4    C2      16.643462   14.172311   21.382855 C.3        1 MOL1         0.1003
       5    H2      16.590308   13.267426   20.763807 H          1 MOL1         0.0783
       6    O2      15.853372   13.976497   22.568946 O.3        1 MOL1        -0.5519
       7    H3      15.495564   14.865791   22.820108 H          1 MOL1         0.3769
       8    C3      18.116517   14.350140   21.824819 C.3        1 MOL1         0.1053
       9    H4      18.133382   15.093367   22.634758 H          1 MOL1         0.0783
      10    O3      18.612502   13.097106   22.309744 O.3        1 MOL1        -0.5519
      11    H5      17.902971   12.758012   22.901157 H          1 MOL1         0.3769
      12    C4      19.005275   14.894063   20.680509 C.3        1 MOL1         0.1018
      13    H6      19.128057   14.125318   19.906325 H          1 MOL1         0.0783
      14    C5      18.409514   16.184637   20.050252 C.3        1 MOL1         0.1043
      15    H7      19.026982   17.021838   20.385908 H          1 MOL1         0.0783
      16    O4      17.070721   16.449796   20.531773 O.3        1 MOL1        -0.3740
      17    C6      18.451673   16.218093   18.502245 C.3        1 MOL1         0.0138
      18    H8      19.500111   16.329511   18.193064 H          1 MOL1         0.0794
      19    H9      17.920334   17.116491   18.159072 H          1 MOL1         0.0794
      20    O5      17.890884   15.040844   17.905786 O.3        1 MOL1        -0.5486
      21    H10     17.957632   15.143016   16.931307 H          1 MOL1         0.3769
      22    C7      14.789624   19.940970   22.012262 C.3        1 MOL1         0.2972
      23    H11     14.300275   20.856807   22.367646 H          1 MOL1         0.0751
      24    O6      16.133923   20.216080   21.573146 O.3        1 MOL1        -0.3740
      25    C8      14.822660   18.900451   23.169647 C.3        1 MOL1         0.1003
      26    H12     13.788722   18.794713   23.523065 H          1 MOL1         0.0783
      27    O7      15.638080   19.358873   24.260181 O.3        1 MOL1        -0.5519
      28    H13     15.814376   20.318472   24.102486 H          1 MOL1         0.3769
      29    C9      15.302403   17.506854   22.695460 C.3        1 MOL1         0.1053
      30    H14     16.369194   17.593435   22.458600 H          1 MOL1         0.0783
      31    O8      15.105191   16.564883   23.753345 O.3        1 MOL1        -0.5519
      32    H15     15.459188   17.014072   24.553867 H          1 MOL1         0.3769
      33    C10     14.495696   17.092277   21.434956 C.3        1 MOL1         0.1018
      34    H16     13.444820   17.061792   21.749989 H          1 MOL1         0.0783
      35    C11     14.587799   18.176226   20.327436 C.3        1 MOL1         0.1043
      36    H17     15.635476   18.328620   20.041387 H          1 MOL1         0.0783
      37    O9      14.060101   19.404707   20.883748 O.3        1 MOL1        -0.3740
      38    C12     13.793950   17.833785   19.043240 C.3        1 MOL1         0.0138
      39    H18     14.362216   17.085925   18.473778 H          1 MOL1         0.0794
      40    H19     13.728109   18.734848   18.419146 H          1 MOL1         0.0794
      41    O10     12.483567   17.329303   19.327436 O.3        1 MOL1        -0.5486
      42    H20     12.601938   16.471131   19.791449 H          1 MOL1         0.3769
      43    C13     18.466893   23.699619   21.171587 C.3        1 MOL1         0.2972
      44    H21     18.749646   24.738723   20.960804 H          1 MOL1         0.0751
      45    O11     19.612621   22.898238   21.509337 O.3        1 MOL1        -0.3740
      46    C14     17.495788   23.662736   22.377279 C.3        1 MOL1         0.1003
      47    H22     16.631286   24.288556   22.120428 H          1 MOL1         0.0783
      48    O12     18.126616   24.193854   23.553909 O.3        1 MOL1        -0.5519
      49    H23     19.098869   24.036703   23.456190 H          1 MOL1         0.3769
      50    C15     16.980669   22.227944   22.638469 C.3        1 MOL1         0.1053
      51    H24     17.825278   21.607579   22.965191 H          1 MOL1         0.0783
      52    O13     15.985376   22.276756   23.667097 O.3        1 MOL1        -0.5519
      53    H25     16.359724   22.882893   24.346213 H          1 MOL1         0.3769
      54    C16     16.409311   21.612730   21.334894 C.3        1 MOL1         0.1018
      55    H26     15.497215   22.151127   21.043727 H          1 MOL1         0.0783
      56    C17     17.422703   21.719944   20.165805 C.3        1 MOL1         0.1043
      57    H27     18.295603   21.094969   20.390216 H          1 MOL1         0.0783
      58    O14     17.815216   23.110739   20.024191 O.3        1 MOL1        -0.3740
      59    C18     16.798642   21.254082   18.829199 C.3        1 MOL1         0.0138
      60    H28     16.257890   20.313880   18.995190 H          1 MOL1         0.0794
      61    H29     16.067244   21.999849   18.491639 H          1 MOL1         0.0794
      62    O15     17.800781   21.048028   17.830772 O.3        1 MOL1        -0.5486
      63    H30     18.423082   20.353486   18.183481 H          1 MOL1         0.3769
      64    C19     23.761523   22.839477   21.145351 C.3        1 MOL1         0.2972
      65    H31     24.813523   23.057144   20.920329 H          1 MOL1         0.0751
      66    O16     23.587712   21.518706   21.688379 O.3        1 MOL1        -0.3740
      67    C20     23.206852   23.823610   22.205847 C.3        1 MOL1         0.1003
      68    H32     23.293346   24.838757   21.797297 H          1 MOL1         0.0783
      69    O17     23.964727   23.730386   23.423849 O.3        1 MOL1        -0.5519
      70    H33     24.107752   22.767225   23.603715 H          1 MOL1         0.3769
      71    C21     21.708618   23.538528   22.483582 C.3        1 MOL1         0.1053
      72    H34     21.635987   22.564525   22.983628 H          1 MOL1         0.0783
      73    O18     21.173990   24.557491   23.334975 O.3        1 MOL1        -0.5519
      74    H35     21.833341   24.660697   24.056559 H          1 MOL1         0.3769
      75    C22     20.892075   23.465822   21.169414 C.3        1 MOL1         0.1018
      76    H36     20.802728   24.482383   20.764865 H          1 MOL1         0.0783
      77    C23     21.567793   22.554043   20.110088 C.3        1 MOL1         0.1043
      78    H37     21.533556   21.522814   20.476289 H          1 MOL1         0.0783
      79    O19     22.949386   22.959562   19.957289 O.3        1 MOL1        -0.3740
      80    C24     20.891089   22.555039   18.717081 C.3        1 MOL1         0.0138
      81    H38     20.100109   21.796402   18.723109 H          1 MOL1         0.0794
      82    H39     21.627736   22.235425   17.968201 H          1 MOL1         0.0794
      83    O20     20.330148   23.823365   18.358869 O.3        1 MOL1        -0.5486
      84    H40     19.383620   23.786713   18.630730 H          1 MOL1         0.3769
      85    C25     25.284707   17.800370   21.994973 C.3        1 MOL1         0.2972
      86    H41     25.923419   16.910578   22.062587 H          1 MOL1         0.0751
      87    O21     23.886007   17.459330   21.974573 O.3        1 MOL1        -0.3740
      88    C26     25.520289   18.712685   23.221202 C.3        1 MOL1         0.1003
      89    H42     26.567242   19.042040   23.200187 H          1 MOL1         0.0783
      90    O22     25.268495   17.989085   24.436779 O.3        1 MOL1        -0.5519
      91    H43     24.542706   17.344566   24.243103 H          1 MOL1         0.3769
      92    C27     24.617131   19.964004   23.138940 C.3        1 MOL1         0.1053
      93    H44     23.576152   19.633249   23.251926 H          1 MOL1         0.0783
      94    O23     24.947955   20.873961   24.194270 O.3        1 MOL1        -0.5519
      95    H45     24.986301   20.319808   25.005080 H          1 MOL1         0.3769
      96    C28     24.749650   20.678588   21.771714 C.3        1 MOL1         0.1018
      97    H46     25.681688   21.258787   21.770380 H          1 MOL1         0.0783
      98    C29     24.718728   19.698932   20.561687 C.3        1 MOL1         0.1043
      99    H47     23.687956   19.345529   20.443774 H          1 MOL1         0.0783
     100    O24     25.584085   18.558773   20.805763 O.3        1 MOL1        -0.3740
     101    C30     25.127929   20.345029   19.217510 C.3        1 MOL1         0.0138
     102    H48     24.317884   21.010133   18.890351 H          1 MOL1         0.0794
     103    H49     25.216925   19.552750   18.462322 H          1 MOL1         0.0794
     104    O25     26.355550   21.078109   19.320675 O.3        1 MOL1        -0.5486
     105    H50     26.575988   21.415345   18.425263 H          1 MOL1         0.3769
     106    C31     21.319623   14.273873   21.152960 C.3        1 MOL1         0.2972
     107    H51     20.917585   13.283787   20.901731 H          1 MOL1         0.0751
     108    O26     20.270299   15.255310   21.268564 O.3        1 MOL1        -0.3740
     109    C32     22.079485   14.208206   22.503751 C.3        1 MOL1         0.1003
     110    H52     22.891266   13.478775   22.385273 H          1 MOL1         0.0783
     111    O27     21.215157   13.780078   23.568351 O.3        1 MOL1        -0.5519
     112    H53     20.316799   13.653418   23.174311 H          1 MOL1         0.3769
     113    C33     22.711947   15.576972   22.844754 C.3        1 MOL1         0.1053
     114    H54     21.900595   16.295425   23.027427 H          1 MOL1         0.0783
     115    O28     23.524949   15.451576   24.016929 O.3        1 MOL1        -0.5519
     116    H55     22.970464   14.944539   24.651444 H          1 MOL1         0.3769
     117    C34     23.563588   16.094883   21.662856 C.3        1 MOL1         0.1018
     118    H56     24.459526   15.465940   21.579508 H          1 MOL1         0.0783
     119    C35     22.776845   16.056872   20.322341 C.3        1 MOL1         0.1043
     120    H57     21.947627   16.771489   20.385749 H          1 MOL1         0.0783
     121    O29     22.242115   14.721851   20.133987 O.3        1 MOL1        -0.3740
     122    C36     23.605630   16.441430   19.069834 C.3        1 MOL1         0.0138
     123    H58     23.575039   17.531980   18.953746 H          1 MOL1         0.0794
     124    H59     23.116338   16.016306   18.183623 H          1 MOL1         0.0794
     125    O30     24.969617   16.009127   19.139088 O.3        1 MOL1        -0.5486
     126    H60     25.459244   16.710683   19.626051 H          1 MOL1         0.3769
     127    C1      20.579758   19.154158   19.646305 C.2        1 MOL1         0.6173
     128    O1      19.491932   19.223264   19.103312 O.co2      1 MOL1        -0.6755
     129    O2      21.630072   19.159765   19.034815 O.co2      1 MOL1        -0.6755
     130    C2      20.658032   19.082248   21.131817 C.2        1 MOL1        -0.1504
     131    H1      21.659131   19.029853   21.549971 H          1 MOL1         0.0814
     132    C3      19.582313   19.081001   21.951036 C.2        1 MOL1        -0.1394
     133    H2      18.572743   19.123085   21.545884 H          1 MOL1         0.0817
     134    C4      19.674987   18.995067   23.458255 C.3        1 MOL1        -0.1849
     135    H3      20.201563   18.074545   23.742826 H          1 MOL1         0.0736
     136    H4      18.664364   18.922432   23.882731 H          1 MOL1         0.0736
     137    C5      20.399705   20.216802   24.061550 C.3        1 MOL1        -0.1866
     138    H5      21.411386   20.291459   23.644035 H          1 MOL1         0.0738
     139    H6      19.872512   21.136597   23.779189 H          1 MOL1         0.0738
     140    C6      20.489467   20.128461   25.597107 C.3        1 MOL1        -0.2879
     141    H7      19.488428   20.085394   26.045669 H          1 MOL1         0.0750
     142    H8      21.044185   19.232907   25.905831 H          1 MOL1         0.0750
     143    H9      21.007486   21.006428   26.003968 H          1 MOL1         0.0750
@<TRIPOS>BOND
    1     1     2    1
    2     1     3    1
    3     1     4    1
    4     4     5    1
    5     4     6    1
    6     6     7    1
    7     4     8    1
    8     8     9    1
    9     8    10    1
   10    10    11    1
   11     8    12    1
   12    12    13    1
   13    12    14    1
   14    14    15    1
   15     1    16    1
   16    14    16    1
   17    14    17    1
   18    17    18    1
   19    17    19    1
   20    17    20    1
   21    20    21    1
   22    22    23    1
   23    22    24    1
   24    22    25    1
   25    25    26    1
   26    25    27    1
   27    27    28    1
   28    25    29    1
   29    29    30    1
   30    29    31    1
   31    31    32    1
   32     3    33    1
   33    29    33    1
   34    33    34    1
   35    33    35    1
   36    35    36    1
   37    22    37    1
   38    35    37    1
   39    35    38    1
   40    38    39    1
   41    38    40    1
   42    38    41    1
   43    41    42    1
   44    43    44    1
   45    43    45    1
   46    43    46    1
   47    46    47    1
   48    46    48    1
   49    48    49    1
   50    46    50    1
   51    50    51    1
   52    50    52    1
   53    52    53    1
   54    24    54    1
   55    50    54    1
   56    54    55    1
   57    54    56    1
   58    56    57    1
   59    43    58    1
   60    56    58    1
   61    56    59    1
   62    59    60    1
   63    59    61    1
   64    59    62    1
   65    62    63    1
   66    64    65    1
   67    64    66    1
   68    64    67    1
   69    67    68    1
   70    67    69    1
   71    69    70    1
   72    67    71    1
   73    71    72    1
   74    71    73    1
   75    73    74    1
   76    45    75    1
   77    71    75    1
   78    75    76    1
   79    75    77    1
   80    77    78    1
   81    64    79    1
   82    77    79    1
   83    77    80    1
   84    80    81    1
   85    80    82    1
   86    80    83    1
   87    83    84    1
   88    85    86    1
   89    85    87    1
   90    85    88    1
   91    88    89    1
   92    88    90    1
   93    90    91    1
   94    88    92    1
   95    92    93    1
   96    92    94    1
   97    94    95    1
   98    66    96    1
   99    92    96    1
  100    96    97    1
  101    96    98    1
  102    98    99    1
  103    85   100    1
  104    98   100    1
  105    98   101    1
  106   101   102    1
  107   101   103    1
  108   101   104    1
  109   104   105    1
  110   106   107    1
  111    12   108    1
  112   106   108    1
  113   106   109    1
  114   109   110    1
  115   109   111    1
  116   111   112    1
  117   109   113    1
  118   113   114    1
  119   113   115    1
  120   115   116    1
  121    87   117    1
  122   113   117    1
  123   117   118    1
  124   117   119    1
  125   119   120    1
  126   106   121    1
  127   119   121    1
  128   119   122    1
  129   122   123    1
  130   122   124    1
  131   122   125    1
  132   125   126    1
  133   127   128    1
  134   127   129    2
  135   127   130    1
  136   130   131    1
  137   130   132    2
  138   132   133    1
  139   132   134    1
  140   134   135    1
  141   134   136    1
  142   134   137    1
  143   137   138    1
  144   137   139    1
  145   137   140    1
  146   140   141    1
  147   140   142    1
  148   140   143    1
@<TRIPOS>SUBSTRUCTURE
       1 MOL1            1 RESIDUE      1      MOL     
       2 MOL1          143 RESIDUE      1      MOL     
@<SCITEGIC>MOL_PROPERTY
feprocess Rank
SciTegic.value.IntegerValue
183

@<SCITEGIC>MOL_PROPERTY
Conf_Id
SciTegic.value.IntegerValue
117

@<SCITEGIC>MOL_PROPERTY
Probability
SciTegic.value.DoubleValue
0.00

@<SCITEGIC>MOL_PROPERTY
G
SciTegic.value.DoubleValue
506.787

@<SCITEGIC>MOL_PROPERTY
E
SciTegic.value.DoubleValue
324.590

@<SCITEGIC>MOL_PROPERTY
-TS
SciTegic.value.DoubleValue
182.198

@<SCITEGIC>MOL_PROPERTY
U+W
SciTegic.value.DoubleValue
198.501

@<SCITEGIC>MOL_PROPERTY
U
SciTegic.value.DoubleValue
263.870

@<SCITEGIC>MOL_PROPERTY
W
SciTegic.value.DoubleValue
-65.368

@<SCITEGIC>MOL_PROPERTY
W(PB)
SciTegic.value.DoubleValue
-71.323

@<SCITEGIC>MOL_PROPERTY
W(SA)
SciTegic.value.DoubleValue
5.955

@<SCITEGIC>MOL_PROPERTY
Valence
SciTegic.value.DoubleValue
155.591

@<SCITEGIC>MOL_PROPERTY
Coulomb
SciTegic.value.DoubleValue
131.904

@<SCITEGIC>MOL_PROPERTY
VdW
SciTegic.value.DoubleValue
-23.624

@<SCITEGIC>MOL_PROPERTY
VdW6
SciTegic.value.DoubleValue
-183.689

@<SCITEGIC>MOL_PROPERTY
VdW12
SciTegic.value.DoubleValue
160.064

@<SCITEGIC>MOL_PROPERTY
Bond
SciTegic.value.DoubleValue
5.131

@<SCITEGIC>MOL_PROPERTY
Angle
SciTegic.value.DoubleValue
17.840

@<SCITEGIC>MOL_PROPERTY
Pdih
SciTegic.value.DoubleValue
132.617

@<SCITEGIC>MOL_PROPERTY
Idih
SciTegic.value.DoubleValue
0.002

@<SCITEGIC>MOL_PROPERTY
Tether
SciTegic.value.DoubleValue
0.000

@<TRIPOS>MOLECULE
CD_guest-s19_fast_vm2_rndm.mol2 : feprocess host+ligand conformer 184
         143         148           2
SMALL
USER_CHARGES
 
@<TRIPOS>ATOM
       1    C1      16.089705   14.938344   21.085409 C.3        1 MOL1         0.2972
       2    H1      15.033213   14.794832   20.824857 H          1 MOL1         0.0751
       3    O1      16.355549   16.288987   21.510400 O.3        1 MOL1        -0.3740
       4    C2      16.475599   13.996783   22.251469 C.3        1 MOL1         0.1003
       5    H2      16.316448   12.963946   21.915330 H          1 MOL1         0.0783
       6    O2      15.648718   14.260831   23.396212 O.3        1 MOL1        -0.5519
       7    H3      15.403253   15.217594   23.354341 H          1 MOL1         0.3769
       8    C3      17.970129   14.161988   22.613053 C.3        1 MOL1         0.1053
       9    H4      18.103284   15.166202   23.036356 H          1 MOL1         0.0783
      10    O3      18.344844   13.179853   23.584361 O.3        1 MOL1        -0.5519
      11    H5      17.630145   13.202545   24.258886 H          1 MOL1         0.3769
      12    C4      18.873001   14.040025   21.359865 C.3        1 MOL1         0.1018
      13    H6      18.920964   12.984537   21.061620 H          1 MOL1         0.0783
      14    C5      18.356513   14.899468   20.169928 C.3        1 MOL1         0.1043
      15    H7      18.497293   15.954070   20.438417 H          1 MOL1         0.0783
      16    O4      16.944079   14.643579   19.960097 O.3        1 MOL1        -0.3740
      17    C6      19.092416   14.676067   18.821949 C.3        1 MOL1         0.0138
      18    H8      19.905905   15.406341   18.740251 H          1 MOL1         0.0794
      19    H9      18.394613   14.894952   18.002538 H          1 MOL1         0.0794
      20    O5      19.618524   13.352734   18.672098 O.3        1 MOL1        -0.5486
      21    H10     20.430199   13.300949   19.229197 H          1 MOL1         0.3769
      22    C7      14.901641   20.188254   21.175986 C.3        1 MOL1         0.2972
      23    H11     14.293384   21.062940   20.913824 H          1 MOL1         0.0751
      24    O6      16.091312   20.584337   21.893541 O.3        1 MOL1        -0.3740
      25    C8      14.082776   19.228049   22.078356 C.3        1 MOL1         0.1003
      26    H12     13.176620   18.946334   21.526378 H          1 MOL1         0.0783
      27    O7      13.711762   19.881950   23.300187 O.3        1 MOL1        -0.5519
      28    H13     14.509978   20.374205   23.594207 H          1 MOL1         0.3769
      29    C9      14.878006   17.937610   22.387079 C.3        1 MOL1         0.1053
      30    H14     15.740046   18.207961   23.012859 H          1 MOL1         0.0783
      31    O8      14.042658   17.010087   23.088475 O.3        1 MOL1        -0.5519
      32    H15     13.595919   17.541327   23.784613 H          1 MOL1         0.3769
      33    C10     15.411255   17.288857   21.089056 C.3        1 MOL1         0.1018
      34    H16     14.567153   16.860286   20.532728 H          1 MOL1         0.0783
      35    C11     16.153218   18.324191   20.201187 C.3        1 MOL1         0.1043
      36    H17     17.045358   18.641479   20.748952 H          1 MOL1         0.0783
      37    O9      15.297446   19.472461   19.984081 O.3        1 MOL1        -0.3740
      38    C12     16.624381   17.799347   18.820437 C.3        1 MOL1         0.0138
      39    H18     17.629054   17.374179   18.930629 H          1 MOL1         0.0794
      40    H19     16.717350   18.652976   18.135893 H          1 MOL1         0.0794
      41    O10     15.746420   16.817314   18.259957 O.3        1 MOL1        -0.5486
      42    H20     15.957835   15.961343   18.699601 H          1 MOL1         0.3769
      43    C13     18.722404   23.788240   21.388242 C.3        1 MOL1         0.2972
      44    H21     18.714224   23.646487   20.303119 H          1 MOL1         0.0751
      45    O11     19.670414   24.838615   21.700048 O.3        1 MOL1        -0.3740
      46    C14     17.291992   24.200755   21.840825 C.3        1 MOL1         0.1003
      47    H22     16.861691   24.779901   21.013727 H          1 MOL1         0.0783
      48    O12     17.286988   25.011181   23.029068 O.3        1 MOL1        -0.5519
      49    H23     17.890204   24.582379   23.693999 H          1 MOL1         0.3769
      50    C15     16.377572   22.970746   22.092856 C.3        1 MOL1         0.1053
      51    H24     16.435751   22.731916   23.163796 H          1 MOL1         0.0783
      52    O13     15.029863   23.320425   21.760349 O.3        1 MOL1        -0.5519
      53    H25     14.811476   24.102907   22.311739 H          1 MOL1         0.3769
      54    C16     16.826675   21.694638   21.328689 C.3        1 MOL1         0.1018
      55    H26     16.618254   21.814209   20.257790 H          1 MOL1         0.0783
      56    C17     18.339564   21.386522   21.544258 C.3        1 MOL1         0.1043
      57    H27     18.401866   20.634063   22.337575 H          1 MOL1         0.0783
      58    O14     19.072478   22.543700   22.011442 O.3        1 MOL1        -0.3740
      59    C18     19.075385   20.777604   20.323991 C.3        1 MOL1         0.0138
      60    H28     18.707067   19.762254   20.144034 H          1 MOL1         0.0794
      61    H29     20.133233   20.679328   20.596496 H          1 MOL1         0.0794
      62    O15     18.945700   21.560710   19.131337 O.3        1 MOL1        -0.5486
      63    H30     18.100727   21.318796   18.697172 H          1 MOL1         0.3769
      64    C19     23.515110   22.930768   21.739746 C.3        1 MOL1         0.2972
      65    H31     24.611823   22.883050   21.722215 H          1 MOL1         0.0751
      66    O16     22.945784   21.605986   21.703343 O.3        1 MOL1        -0.3740
      67    C20     23.076839   23.651684   23.041714 C.3        1 MOL1         0.1003
      68    H32     23.602165   24.615053   23.064085 H          1 MOL1         0.0783
      69    O17     23.488342   22.875207   24.178979 O.3        1 MOL1        -0.5519
      70    H33     23.754856   21.987308   23.838522 H          1 MOL1         0.3769
      71    C21     21.555566   23.956021   23.076278 C.3        1 MOL1         0.1053
      72    H34     21.033032   23.008669   23.249962 H          1 MOL1         0.0783
      73    O18     21.281486   24.882794   24.135303 O.3        1 MOL1        -0.5519
      74    H35     20.385614   24.652131   24.493383 H          1 MOL1         0.3769
      75    C22     21.104959   24.591125   21.730657 C.3        1 MOL1         0.1018
      76    H36     21.600862   25.569105   21.689294 H          1 MOL1         0.0783
      77    C23     21.594370   23.784877   20.493408 C.3        1 MOL1         0.1043
      78    H37     21.133887   22.790884   20.507637 H          1 MOL1         0.0783
      79    O19     23.032907   23.647153   20.582763 O.3        1 MOL1        -0.3740
      80    C24     21.264497   24.442372   19.129224 C.3        1 MOL1         0.0138
      81    H38     20.203060   24.281738   18.902247 H          1 MOL1         0.0794
      82    H39     21.836499   23.928995   18.344912 H          1 MOL1         0.0794
      83    O20     21.555418   25.844785   19.112379 O.3        1 MOL1        -0.5486
      84    H40     20.940578   26.278789   19.743406 H          1 MOL1         0.3769
      85    C25     24.415438   17.789337   20.633917 C.3        1 MOL1         0.2972
      86    H41     25.047367   17.022533   20.167526 H          1 MOL1         0.0751
      87    O21     23.255848   17.209299   21.257036 O.3        1 MOL1        -0.3740
      88    C26     25.206189   18.562884   21.723665 C.3        1 MOL1         0.1003
      89    H42     26.088527   18.997532   21.236195 H          1 MOL1         0.0783
      90    O22     25.640941   17.687062   22.776327 O.3        1 MOL1        -0.5519
      91    H43     24.859531   17.145355   23.055660 H          1 MOL1         0.3769
      92    C27     24.362839   19.727307   22.300371 C.3        1 MOL1         0.1053
      93    H44     23.503123   19.306970   22.840506 H          1 MOL1         0.0783
      94    O23     25.171939   20.503426   23.189984 O.3        1 MOL1        -0.5519
      95    H45     25.643033   19.844604   23.747631 H          1 MOL1         0.3769
      96    C28     23.835307   20.614858   21.148783 C.3        1 MOL1         0.1018
      97    H46     24.699164   21.080010   20.655144 H          1 MOL1         0.0783
      98    C29     23.075907   19.777341   20.089168 C.3        1 MOL1         0.1043
      99    H47     22.185427   19.334794   20.555059 H          1 MOL1         0.0783
     100    O24     23.960485   18.725836   19.630396 O.3        1 MOL1        -0.3740
     101    C30     22.615909   20.593900   18.852302 C.3        1 MOL1         0.0138
     102    H48     21.671810   21.096891   19.089413 H          1 MOL1         0.0794
     103    H49     22.406259   19.895964   18.030974 H          1 MOL1         0.0794
     104    O25     23.578337   21.570934   18.435736 O.3        1 MOL1        -0.5486
     105    H50     23.543716   22.309663   19.087292 H          1 MOL1         0.3769
     106    C31     21.261209   13.638094   21.715753 C.3        1 MOL1         0.2972
     107    H51     20.925193   12.597031   21.805732 H          1 MOL1         0.0751
     108    O26     20.155693   14.557871   21.751860 O.3        1 MOL1        -0.3740
     109    C32     22.202231   13.992734   22.891162 C.3        1 MOL1         0.1003
     110    H52     23.080157   13.336798   22.827060 H          1 MOL1         0.0783
     111    O27     21.532050   13.775621   24.142753 O.3        1 MOL1        -0.5519
     112    H53     20.572118   13.934809   23.976972 H          1 MOL1         0.3769
     113    C33     22.685529   15.458226   22.783688 C.3        1 MOL1         0.1053
     114    H54     21.823753   16.112930   22.956507 H          1 MOL1         0.0783
     115    O28     23.679226   15.707570   23.782879 O.3        1 MOL1        -0.5519
     116    H55     23.297047   15.350307   24.615178 H          1 MOL1         0.3769
     117    C34     23.260282   15.772592   21.380183 C.3        1 MOL1         0.1018
     118    H56     24.274920   15.356067   21.324281 H          1 MOL1         0.0783
     119    C35     22.387914   15.213906   20.219413 C.3        1 MOL1         0.1043
     120    H57     21.495387   15.847563   20.151754 H          1 MOL1         0.0783
     121    O29     21.980486   13.846044   20.483724 O.3        1 MOL1        -0.3740
     122    C36     23.083925   15.252797   18.837556 C.3        1 MOL1         0.0138
     123    H58     23.151229   16.298340   18.508137 H          1 MOL1         0.0794
     124    H59     22.452018   14.723837   18.111460 H          1 MOL1         0.0794
     125    O30     24.392048   14.669338   18.876262 O.3        1 MOL1        -0.5486
     126    H60     24.739690   14.655622   17.957894 H          1 MOL1         0.3769
     127    C1      19.281132   22.912607   25.685460 C.2        1 MOL1         0.6173
     128    O1      18.777095   23.894583   25.170471 O.co2      1 MOL1        -0.6755
     129    O2      20.065171   22.973929   26.612105 O.co2      1 MOL1        -0.6755
     130    C2      18.963371   21.597246   25.075187 C.2        1 MOL1        -0.1504
     131    H1      18.194955   21.618594   24.311493 H          1 MOL1         0.0814
     132    C3      19.584699   20.435806   25.378833 C.2        1 MOL1        -0.1394
     133    H2      20.372598   20.397690   26.130471 H          1 MOL1         0.0817
     134    C4      19.283785   19.138056   24.661146 C.3        1 MOL1        -0.1849
     135    H3      18.255821   19.161848   24.274834 H          1 MOL1         0.0736
     136    H4      19.330808   18.294684   25.362641 H          1 MOL1         0.0736
     137    C5      20.275738   18.903838   23.500133 C.3        1 MOL1        -0.1866
     138    H5      20.445449   19.841611   22.954860 H          1 MOL1         0.0738
     139    H6      21.251632   18.602851   23.905075 H          1 MOL1         0.0738
     140    C6      19.757592   17.828396   22.525970 C.3        1 MOL1        -0.2879
     141    H7      19.633844   16.872298   23.047170 H          1 MOL1         0.0750
     142    H8      18.785702   18.110167   22.106619 H          1 MOL1         0.0750
     143    H9      20.460511   17.680344   21.696827 H          1 MOL1         0.0750
@<TRIPOS>BOND
    1     1     2    1
    2     1     3    1
    3     1     4    1
    4     4     5    1
    5     4     6    1
    6     6     7    1
    7     4     8    1
    8     8     9    1
    9     8    10    1
   10    10    11    1
   11     8    12    1
   12    12    13    1
   13    12    14    1
   14    14    15    1
   15     1    16    1
   16    14    16    1
   17    14    17    1
   18    17    18    1
   19    17    19    1
   20    17    20    1
   21    20    21    1
   22    22    23    1
   23    22    24    1
   24    22    25    1
   25    25    26    1
   26    25    27    1
   27    27    28    1
   28    25    29    1
   29    29    30    1
   30    29    31    1
   31    31    32    1
   32     3    33    1
   33    29    33    1
   34    33    34    1
   35    33    35    1
   36    35    36    1
   37    22    37    1
   38    35    37    1
   39    35    38    1
   40    38    39    1
   41    38    40    1
   42    38    41    1
   43    41    42    1
   44    43    44    1
   45    43    45    1
   46    43    46    1
   47    46    47    1
   48    46    48    1
   49    48    49    1
   50    46    50    1
   51    50    51    1
   52    50    52    1
   53    52    53    1
   54    24    54    1
   55    50    54    1
   56    54    55    1
   57    54    56    1
   58    56    57    1
   59    43    58    1
   60    56    58    1
   61    56    59    1
   62    59    60    1
   63    59    61    1
   64    59    62    1
   65    62    63    1
   66    64    65    1
   67    64    66    1
   68    64    67    1
   69    67    68    1
   70    67    69    1
   71    69    70    1
   72    67    71    1
   73    71    72    1
   74    71    73    1
   75    73    74    1
   76    45    75    1
   77    71    75    1
   78    75    76    1
   79    75    77    1
   80    77    78    1
   81    64    79    1
   82    77    79    1
   83    77    80    1
   84    80    81    1
   85    80    82    1
   86    80    83    1
   87    83    84    1
   88    85    86    1
   89    85    87    1
   90    85    88    1
   91    88    89    1
   92    88    90    1
   93    90    91    1
   94    88    92    1
   95    92    93    1
   96    92    94    1
   97    94    95    1
   98    66    96    1
   99    92    96    1
  100    96    97    1
  101    96    98    1
  102    98    99    1
  103    85   100    1
  104    98   100    1
  105    98   101    1
  106   101   102    1
  107   101   103    1
  108   101   104    1
  109   104   105    1
  110   106   107    1
  111    12   108    1
  112   106   108    1
  113   106   109    1
  114   109   110    1
  115   109   111    1
  116   111   112    1
  117   109   113    1
  118   113   114    1
  119   113   115    1
  120   115   116    1
  121    87   117    1
  122   113   117    1
  123   117   118    1
  124   117   119    1
  125   119   120    1
  126   106   121    1
  127   119   121    1
  128   119   122    1
  129   122   123    1
  130   122   124    1
  131   122   125    1
  132   125   126    1
  133   127   128    1
  134   127   129    2
  135   127   130    1
  136   130   131    1
  137   130   132    2
  138   132   133    1
  139   132   134    1
  140   134   135    1
  141   134   136    1
  142   134   137    1
  143   137   138    1
  144   137   139    1
  145   137   140    1
  146   140   141    1
  147   140   142    1
  148   140   143    1
@<TRIPOS>SUBSTRUCTURE
       1 MOL1            1 RESIDUE      1      MOL     
       2 MOL1          143 RESIDUE      1      MOL     
@<SCITEGIC>MOL_PROPERTY
feprocess Rank
SciTegic.value.IntegerValue
184

@<SCITEGIC>MOL_PROPERTY
Conf_Id
SciTegic.value.IntegerValue
521

@<SCITEGIC>MOL_PROPERTY
Probability
SciTegic.value.DoubleValue
0.00

@<SCITEGIC>MOL_PROPERTY
G
SciTegic.value.DoubleValue
506.803

@<SCITEGIC>MOL_PROPERTY
E
SciTegic.value.DoubleValue
325.130

@<SCITEGIC>MOL_PROPERTY
-TS
SciTegic.value.DoubleValue
181.673

@<SCITEGIC>MOL_PROPERTY
U+W
SciTegic.value.DoubleValue
199.042

@<SCITEGIC>MOL_PROPERTY
U
SciTegic.value.DoubleValue
289.289

@<SCITEGIC>MOL_PROPERTY
W
SciTegic.value.DoubleValue
-90.247

@<SCITEGIC>MOL_PROPERTY
W(PB)
SciTegic.value.DoubleValue
-96.240

@<SCITEGIC>MOL_PROPERTY
W(SA)
SciTegic.value.DoubleValue
5.993

@<SCITEGIC>MOL_PROPERTY
Valence
SciTegic.value.DoubleValue
152.097

@<SCITEGIC>MOL_PROPERTY
Coulomb
SciTegic.value.DoubleValue
160.915

@<SCITEGIC>MOL_PROPERTY
VdW
SciTegic.value.DoubleValue
-23.723

@<SCITEGIC>MOL_PROPERTY
VdW6
SciTegic.value.DoubleValue
-179.103

@<SCITEGIC>MOL_PROPERTY
VdW12
SciTegic.value.DoubleValue
155.380

@<SCITEGIC>MOL_PROPERTY
Bond
SciTegic.value.DoubleValue
5.024

@<SCITEGIC>MOL_PROPERTY
Angle
SciTegic.value.DoubleValue
16.876

@<SCITEGIC>MOL_PROPERTY
Pdih
SciTegic.value.DoubleValue
130.179

@<SCITEGIC>MOL_PROPERTY
Idih
SciTegic.value.DoubleValue
0.018

@<SCITEGIC>MOL_PROPERTY
Tether
SciTegic.value.DoubleValue
0.000

@<TRIPOS>MOLECULE
CD_guest-s19_fast_vm2_rndm.mol2 : feprocess host+ligand conformer 185
         143         148           2
SMALL
USER_CHARGES
 
@<TRIPOS>ATOM
       1    C1      16.711256   15.747694   20.152437 C.3        1 MOL1         0.2972
       2    H1      15.770557   15.630433   19.599251 H          1 MOL1         0.0751
       3    O1      16.793293   17.043726   20.779529 O.3        1 MOL1        -0.3740
       4    C2      16.848072   14.652552   21.246265 C.3        1 MOL1         0.1003
       5    H2      16.830279   13.679922   20.738304 H          1 MOL1         0.0783
       6    O2      15.745507   14.708533   22.164833 O.3        1 MOL1        -0.5519
       7    H3      15.779363   15.590589   22.612172 H          1 MOL1         0.3769
       8    C3      18.218810   14.786216   21.963285 C.3        1 MOL1         0.1053
       9    H4      18.253899   15.762586   22.465594 H          1 MOL1         0.0783
      10    O3      18.406387   13.746121   22.926687 O.3        1 MOL1        -0.5519
      11    H5      19.028426   14.137832   23.590286 H          1 MOL1         0.3769
      12    C4      19.353575   14.732157   20.909153 C.3        1 MOL1         0.1018
      13    H6      19.317184   13.748570   20.422141 H          1 MOL1         0.0783
      14    C5      19.144389   15.815462   19.817967 C.3        1 MOL1         0.1043
      15    H7      19.207556   16.807203   20.285191 H          1 MOL1         0.0783
      16    O4      17.827417   15.629299   19.242306 O.3        1 MOL1        -0.3740
      17    C6      20.175052   15.770288   18.661442 C.3        1 MOL1         0.0138
      18    H8      21.076858   16.307225   18.974038 H          1 MOL1         0.0794
      19    H9      19.762238   16.319812   17.805185 H          1 MOL1         0.0794
      20    O5      20.520560   14.435602   18.269725 O.3        1 MOL1        -0.5486
      21    H10     21.103799   14.068374   18.974569 H          1 MOL1         0.3769
      22    C7      14.641872   20.489925   21.453861 C.3        1 MOL1         0.2972
      23    H11     13.905989   21.292822   21.590933 H          1 MOL1         0.0751
      24    O6      15.991743   20.979435   21.512780 O.3        1 MOL1        -0.3740
      25    C8      14.491485   19.429136   22.566792 C.3        1 MOL1         0.1003
      26    H12     13.504928   18.961166   22.453171 H          1 MOL1         0.0783
      27    O7      14.577669   20.045071   23.860858 O.3        1 MOL1        -0.5519
      28    H13     15.129346   20.857383   23.755794 H          1 MOL1         0.3769
      29    C9      15.568221   18.330126   22.403733 C.3        1 MOL1         0.1053
      30    H14     16.555218   18.781638   22.571905 H          1 MOL1         0.0783
      31    O8      15.339842   17.307213   23.376438 O.3        1 MOL1        -0.5519
      32    H15     15.219779   17.790013   24.224630 H          1 MOL1         0.3769
      33    C10     15.540602   17.733068   20.971729 C.3        1 MOL1         0.1018
      34    H16     14.681514   17.052563   20.900077 H          1 MOL1         0.0783
      35    C11     15.454044   18.819143   19.858058 C.3        1 MOL1         0.1043
      36    H17     16.440190   19.294768   19.789355 H          1 MOL1         0.0783
      37    O9      14.464260   19.831060   20.183612 O.3        1 MOL1        -0.3740
      38    C12     15.124977   18.251197   18.456700 C.3        1 MOL1         0.0138
      39    H18     15.997180   17.691605   18.092432 H          1 MOL1         0.0794
      40    H19     14.965821   19.090808   17.766720 H          1 MOL1         0.0794
      41    O10     13.973646   17.398456   18.477432 O.3        1 MOL1        -0.5486
      42    H20     13.774122   17.144185   17.550019 H          1 MOL1         0.3769
      43    C13     18.370660   24.328557   21.401478 C.3        1 MOL1         0.2972
      44    H21     18.808219   25.328570   21.286025 H          1 MOL1         0.0751
      45    O11     19.360355   23.354074   21.788168 O.3        1 MOL1        -0.3740
      46    C14     17.283450   24.354912   22.503042 C.3        1 MOL1         0.1003
      47    H22     16.500319   25.055707   22.185898 H          1 MOL1         0.0783
      48    O12     17.847818   24.798085   23.747309 O.3        1 MOL1        -0.5519
      49    H23     18.803086   24.545457   23.732200 H          1 MOL1         0.3769
      50    C15     16.644119   22.956928   22.665549 C.3        1 MOL1         0.1053
      51    H24     17.410219   22.285230   23.070149 H          1 MOL1         0.0783
      52    O13     15.541386   23.024385   23.574723 O.3        1 MOL1        -0.5519
      53    H25     15.877046   23.538155   24.342645 H          1 MOL1         0.3769
      54    C16     16.177996   22.385411   21.304428 C.3        1 MOL1         0.1018
      55    H26     15.254659   22.894391   20.998387 H          1 MOL1         0.0783
      56    C17     17.253435   22.526260   20.192646 C.3        1 MOL1         0.1043
      57    H27     18.071645   21.839972   20.443507 H          1 MOL1         0.0783
      58    O14     17.760583   23.884559   20.169681 O.3        1 MOL1        -0.3740
      59    C18     16.775213   22.142516   18.766671 C.3        1 MOL1         0.0138
      60    H28     17.010677   21.085178   18.593343 H          1 MOL1         0.0794
      61    H29     17.357304   22.718032   18.034405 H          1 MOL1         0.0794
      62    O15     15.374692   22.357766   18.557315 O.3        1 MOL1        -0.5486
      63    H30     14.897631   21.637781   19.031307 H          1 MOL1         0.3769
      64    C19     23.492564   22.699940   21.680495 C.3        1 MOL1         0.2972
      65    H31     24.560658   22.835034   21.475083 H          1 MOL1         0.0751
      66    O16     23.247740   21.429654   22.328867 O.3        1 MOL1        -0.3740
      67    C20     22.997431   23.830318   22.621622 C.3        1 MOL1         0.1003
      68    H32     23.224650   24.788233   22.135843 H          1 MOL1         0.0783
      69    O17     23.673865   23.765811   23.885271 O.3        1 MOL1        -0.5519
      70    H33     23.658885   22.819439   24.149978 H          1 MOL1         0.3769
      71    C21     21.467079   23.751347   22.834262 C.3        1 MOL1         0.1053
      72    H34     21.245073   22.832853   23.394818 H          1 MOL1         0.0783
      73    O18     21.021366   24.891413   23.576767 O.3        1 MOL1        -0.5519
      74    H35     21.659209   24.982114   24.319076 H          1 MOL1         0.3769
      75    C22     20.725636   23.680877   21.479784 C.3        1 MOL1         0.1018
      76    H36     20.817782   24.650642   20.972920 H          1 MOL1         0.0783
      77    C23     21.310049   22.564023   20.573392 C.3        1 MOL1         0.1043
      78    H37     21.119058   21.602253   21.060943 H          1 MOL1         0.0783
      79    O19     22.738110   22.760899   20.448172 O.3        1 MOL1        -0.3740
      80    C24     20.709245   22.486097   19.145792 C.3        1 MOL1         0.0138
      81    H38     19.843252   21.814116   19.163725 H          1 MOL1         0.0794
      82    H39     21.450581   22.024041   18.480351 H          1 MOL1         0.0794
      83    O20     20.318786   23.762091   18.626594 O.3        1 MOL1        -0.5486
      84    H40     19.465261   24.000163   19.057956 H          1 MOL1         0.3769
      85    C25     24.506545   17.527618   21.492888 C.3        1 MOL1         0.2972
      86    H41     24.097981   17.564202   20.478022 H          1 MOL1         0.0751
      87    O21     25.001574   16.191361   21.759037 O.3        1 MOL1        -0.3740
      88    C26     25.670762   18.550260   21.603700 C.3        1 MOL1         0.1003
      89    H42     26.131438   18.607509   20.608803 H          1 MOL1         0.0783
      90    O22     26.653543   18.127002   22.560809 O.3        1 MOL1        -0.5519
      91    H43     26.521651   17.154156   22.648631 H          1 MOL1         0.3769
      92    C27     25.178948   19.970194   22.004687 C.3        1 MOL1         0.1053
      93    H44     25.242623   20.043169   23.099427 H          1 MOL1         0.0783
      94    O23     26.055399   20.933987   21.411928 O.3        1 MOL1        -0.5519
      95    H45     26.955203   20.714149   21.737852 H          1 MOL1         0.3769
      96    C28     23.691716   20.240349   21.629088 C.3        1 MOL1         0.1018
      97    H46     23.614224   20.366043   20.542493 H          1 MOL1         0.0783
      98    C29     22.752174   19.085789   22.102755 C.3        1 MOL1         0.1043
      99    H47     22.275056   19.414620   23.033055 H          1 MOL1         0.0783
     100    O24     23.494882   17.895071   22.435946 O.3        1 MOL1        -0.3740
     101    C30     21.606030   18.708361   21.123668 C.3        1 MOL1         0.0138
     102    H48     20.817807   19.467995   21.178563 H          1 MOL1         0.0794
     103    H49     21.157011   17.769373   21.476660 H          1 MOL1         0.0794
     104    O25     22.042466   18.559507   19.766106 O.3        1 MOL1        -0.5486
     105    H50     22.111511   19.450454   19.365361 H          1 MOL1         0.3769
     106    C31     21.457467   13.762765   21.630355 C.3        1 MOL1         0.2972
     107    H51     20.851406   12.848916   21.581431 H          1 MOL1         0.0751
     108    O26     20.622529   14.941204   21.568656 O.3        1 MOL1        -0.3740
     109    C32     22.285307   13.745350   22.942333 C.3        1 MOL1         0.1003
     110    H52     22.946420   12.871181   22.884977 H          1 MOL1         0.0783
     111    O27     21.441566   13.584084   24.091587 O.3        1 MOL1        -0.5519
     112    H53     21.051075   14.473694   24.307476 H          1 MOL1         0.3769
     113    C33     23.183534   15.002247   23.031731 C.3        1 MOL1         0.1053
     114    H54     22.520141   15.872451   23.036709 H          1 MOL1         0.0783
     115    O28     23.958033   14.970297   24.234185 O.3        1 MOL1        -0.5519
     116    H55     23.325745   15.266134   24.938925 H          1 MOL1         0.3769
     117    C34     24.092905   15.049906   21.772221 C.3        1 MOL1         0.1018
     118    H56     24.708925   14.142605   21.806869 H          1 MOL1         0.0783
     119    C35     23.239385   14.988585   20.470777 C.3        1 MOL1         0.1043
     120    H57     22.616657   15.889773   20.424715 H          1 MOL1         0.0783
     121    O29     22.377287   13.820071   20.514852 O.3        1 MOL1        -0.3740
     122    C36     24.076162   14.919897   19.168781 C.3        1 MOL1         0.0138
     123    H58     24.517967   15.906351   18.977045 H          1 MOL1         0.0794
     124    H59     23.402624   14.702142   18.329153 H          1 MOL1         0.0794
     125    O30     25.111525   13.932695   19.237260 O.3        1 MOL1        -0.5486
     126    H60     25.769962   14.240942   19.897169 H          1 MOL1         0.3769
     127    C1      20.667796   16.629453   24.920293 C.2        1 MOL1         0.6173
     128    O1      19.847783   15.840724   24.487287 O.co2      1 MOL1        -0.6755
     129    O2      21.672150   16.262766   25.500858 O.co2      1 MOL1        -0.6755
     130    C2      20.511773   18.086382   24.657228 C.2        1 MOL1        -0.1504
     131    H1      21.298576   18.721504   25.055977 H          1 MOL1         0.0814
     132    C3      19.482905   18.627745   23.964642 C.2        1 MOL1        -0.1394
     133    H2      18.691633   17.994738   23.564230 H          1 MOL1         0.0817
     134    C4      19.340195   20.111666   23.682128 C.3        1 MOL1        -0.1849
     135    H3      18.510661   20.274206   22.982387 H          1 MOL1         0.0736
     136    H4      20.239886   20.483657   23.179826 H          1 MOL1         0.0736
     137    C5      19.115134   20.950588   24.959161 C.3        1 MOL1        -0.1866
     138    H5      19.947244   20.793883   25.658615 H          1 MOL1         0.0738
     139    H6      19.126001   22.017331   24.697693 H          1 MOL1         0.0738
     140    C6      17.781913   20.614993   25.657696 C.3        1 MOL1        -0.2879
     141    H7      17.756714   19.565403   25.978042 H          1 MOL1         0.0750
     142    H8      17.641763   21.243833   26.545949 H          1 MOL1         0.0750
     143    H9      16.934564   20.786337   24.984842 H          1 MOL1         0.0750
@<TRIPOS>BOND
    1     1     2    1
    2     1     3    1
    3     1     4    1
    4     4     5    1
    5     4     6    1
    6     6     7    1
    7     4     8    1
    8     8     9    1
    9     8    10    1
   10    10    11    1
   11     8    12    1
   12    12    13    1
   13    12    14    1
   14    14    15    1
   15     1    16    1
   16    14    16    1
   17    14    17    1
   18    17    18    1
   19    17    19    1
   20    17    20    1
   21    20    21    1
   22    22    23    1
   23    22    24    1
   24    22    25    1
   25    25    26    1
   26    25    27    1
   27    27    28    1
   28    25    29    1
   29    29    30    1
   30    29    31    1
   31    31    32    1
   32     3    33    1
   33    29    33    1
   34    33    34    1
   35    33    35    1
   36    35    36    1
   37    22    37    1
   38    35    37    1
   39    35    38    1
   40    38    39    1
   41    38    40    1
   42    38    41    1
   43    41    42    1
   44    43    44    1
   45    43    45    1
   46    43    46    1
   47    46    47    1
   48    46    48    1
   49    48    49    1
   50    46    50    1
   51    50    51    1
   52    50    52    1
   53    52    53    1
   54    24    54    1
   55    50    54    1
   56    54    55    1
   57    54    56    1
   58    56    57    1
   59    43    58    1
   60    56    58    1
   61    56    59    1
   62    59    60    1
   63    59    61    1
   64    59    62    1
   65    62    63    1
   66    64    65    1
   67    64    66    1
   68    64    67    1
   69    67    68    1
   70    67    69    1
   71    69    70    1
   72    67    71    1
   73    71    72    1
   74    71    73    1
   75    73    74    1
   76    45    75    1
   77    71    75    1
   78    75    76    1
   79    75    77    1
   80    77    78    1
   81    64    79    1
   82    77    79    1
   83    77    80    1
   84    80    81    1
   85    80    82    1
   86    80    83    1
   87    83    84    1
   88    85    86    1
   89    85    87    1
   90    85    88    1
   91    88    89    1
   92    88    90    1
   93    90    91    1
   94    88    92    1
   95    92    93    1
   96    92    94    1
   97    94    95    1
   98    66    96    1
   99    92    96    1
  100    96    97    1
  101    96    98    1
  102    98    99    1
  103    85   100    1
  104    98   100    1
  105    98   101    1
  106   101   102    1
  107   101   103    1
  108   101   104    1
  109   104   105    1
  110   106   107    1
  111    12   108    1
  112   106   108    1
  113   106   109    1
  114   109   110    1
  115   109   111    1
  116   111   112    1
  117   109   113    1
  118   113   114    1
  119   113   115    1
  120   115   116    1
  121    87   117    1
  122   113   117    1
  123   117   118    1
  124   117   119    1
  125   119   120    1
  126   106   121    1
  127   119   121    1
  128   119   122    1
  129   122   123    1
  130   122   124    1
  131   122   125    1
  132   125   126    1
  133   127   128    1
  134   127   129    2
  135   127   130    1
  136   130   131    1
  137   130   132    2
  138   132   133    1
  139   132   134    1
  140   134   135    1
  141   134   136    1
  142   134   137    1
  143   137   138    1
  144   137   139    1
  145   137   140    1
  146   140   141    1
  147   140   142    1
  148   140   143    1
@<TRIPOS>SUBSTRUCTURE
       1 MOL1            1 RESIDUE      1      MOL     
       2 MOL1          143 RESIDUE      1      MOL     
@<SCITEGIC>MOL_PROPERTY
feprocess Rank
SciTegic.value.IntegerValue
185

@<SCITEGIC>MOL_PROPERTY
Conf_Id
SciTegic.value.IntegerValue
154

@<SCITEGIC>MOL_PROPERTY
Probability
SciTegic.value.DoubleValue
0.00

@<SCITEGIC>MOL_PROPERTY
G
SciTegic.value.DoubleValue
506.889

@<SCITEGIC>MOL_PROPERTY
E
SciTegic.value.DoubleValue
323.637

@<SCITEGIC>MOL_PROPERTY
-TS
SciTegic.value.DoubleValue
183.252

@<SCITEGIC>MOL_PROPERTY
U+W
SciTegic.value.DoubleValue
197.549

@<SCITEGIC>MOL_PROPERTY
U
SciTegic.value.DoubleValue
276.735

@<SCITEGIC>MOL_PROPERTY
W
SciTegic.value.DoubleValue
-79.186

@<SCITEGIC>MOL_PROPERTY
W(PB)
SciTegic.value.DoubleValue
-85.226

@<SCITEGIC>MOL_PROPERTY
W(SA)
SciTegic.value.DoubleValue
6.039

@<SCITEGIC>MOL_PROPERTY
Valence
SciTegic.value.DoubleValue
150.213

@<SCITEGIC>MOL_PROPERTY
Coulomb
SciTegic.value.DoubleValue
148.258

@<SCITEGIC>MOL_PROPERTY
VdW
SciTegic.value.DoubleValue
-21.735

@<SCITEGIC>MOL_PROPERTY
VdW6
SciTegic.value.DoubleValue
-182.470

@<SCITEGIC>MOL_PROPERTY
VdW12
SciTegic.value.DoubleValue
160.735

@<SCITEGIC>MOL_PROPERTY
Bond
SciTegic.value.DoubleValue
5.383

@<SCITEGIC>MOL_PROPERTY
Angle
SciTegic.value.DoubleValue
17.168

@<SCITEGIC>MOL_PROPERTY
Pdih
SciTegic.value.DoubleValue
127.648

@<SCITEGIC>MOL_PROPERTY
Idih
SciTegic.value.DoubleValue
0.015

@<SCITEGIC>MOL_PROPERTY
Tether
SciTegic.value.DoubleValue
0.000

@<TRIPOS>MOLECULE
CD_guest-s19_fast_vm2_rndm.mol2 : feprocess host+ligand conformer 186
         143         148           2
SMALL
USER_CHARGES
 
@<TRIPOS>ATOM
       1    C1      16.082962   14.969710   21.365362 C.3        1 MOL1         0.2972
       2    H1      15.017823   14.774163   21.187336 H          1 MOL1         0.0751
       3    O1      16.318551   16.346988   21.718159 O.3        1 MOL1        -0.3740
       4    C2      16.584771   14.099665   22.543853 C.3        1 MOL1         0.1003
       5    H2      16.430774   13.046973   22.273336 H          1 MOL1         0.0783
       6    O2      15.839443   14.403405   23.733778 O.3        1 MOL1        -0.5519
       7    H3      15.620813   15.366313   23.691207 H          1 MOL1         0.3769
       8    C3      18.096923   14.321186   22.782695 C.3        1 MOL1         0.1053
       9    H4      18.232414   15.348036   23.145665 H          1 MOL1         0.0783
      10    O3      18.573976   13.397415   23.766445 O.3        1 MOL1        -0.5519
      11    H5      17.910786   13.430934   24.491325 H          1 MOL1         0.3769
      12    C4      18.900922   14.159727   21.469341 C.3        1 MOL1         0.1018
      13    H6      18.933109   13.094773   21.204280 H          1 MOL1         0.0783
      14    C5      18.280203   14.967963   20.296411 C.3        1 MOL1         0.1043
      15    H7      18.399188   16.035392   20.523246 H          1 MOL1         0.0783
      16    O4      16.867737   14.655307   20.194205 O.3        1 MOL1        -0.3740
      17    C6      18.940801   14.725687   18.913212 C.3        1 MOL1         0.0138
      18    H8      19.743017   15.460937   18.776113 H          1 MOL1         0.0794
      19    H9      18.196351   14.922449   18.130231 H          1 MOL1         0.0794
      20    O5      19.472571   13.404936   18.759219 O.3        1 MOL1        -0.5486
      21    H10     20.319491   13.375718   19.262658 H          1 MOL1         0.3769
      22    C7      14.786222   20.182657   21.133136 C.3        1 MOL1         0.2972
      23    H11     14.161084   21.045047   20.871502 H          1 MOL1         0.0751
      24    O6      16.070624   20.594788   21.625866 O.3        1 MOL1        -0.3740
      25    C8      14.111468   19.346897   22.250715 C.3        1 MOL1         0.1003
      26    H12     13.144874   19.001990   21.861450 H          1 MOL1         0.0783
      27    O7      13.886934   20.138952   23.430133 O.3        1 MOL1        -0.5519
      28    H13     14.741717   20.593440   23.669578 H          1 MOL1         0.3769
      29    C9      14.960546   18.098681   22.592198 C.3        1 MOL1         0.1053
      30    H14     15.897930   18.438272   23.054449 H          1 MOL1         0.0783
      31    O8      14.242901   17.265248   23.509296 O.3        1 MOL1        -0.5519
      32    H15     13.897935   17.879453   24.195036 H          1 MOL1         0.3769
      33    C10     15.312380   17.294825   21.316058 C.3        1 MOL1         0.1018
      34    H16     14.399911   16.802521   20.954863 H          1 MOL1         0.0783
      35    C11     15.892916   18.208747   20.198635 C.3        1 MOL1         0.1043
      36    H17     16.865729   18.581356   20.541807 H          1 MOL1         0.0783
      37    O9      14.995384   19.327621   19.986762 O.3        1 MOL1        -0.3740
      38    C12     16.131859   17.523350   18.829195 C.3        1 MOL1         0.0138
      39    H18     17.140102   17.092725   18.824689 H          1 MOL1         0.0794
      40    H19     16.115378   18.293820   18.046800 H          1 MOL1         0.0794
      41    O10     15.172487   16.503877   18.530893 O.3        1 MOL1        -0.5486
      42    H20     15.497912   15.678926   18.958809 H          1 MOL1         0.3769
      43    C13     18.743422   23.700828   21.143952 C.3        1 MOL1         0.2972
      44    H21     18.909183   23.606784   20.066030 H          1 MOL1         0.0751
      45    O11     19.652243   24.700934   21.671759 O.3        1 MOL1        -0.3740
      46    C14     17.277752   24.143912   21.403303 C.3        1 MOL1         0.1003
      47    H22     17.026371   24.854085   20.605341 H          1 MOL1         0.0783
      48    O12     17.124526   24.803916   22.672228 O.3        1 MOL1        -0.5519
      49    H23     17.417839   24.154140   23.367234 H          1 MOL1         0.3769
      50    C15     16.253357   22.973756   21.355762 C.3        1 MOL1         0.1053
      51    H24     15.908491   22.821259   22.386784 H          1 MOL1         0.0783
      52    O13     15.122838   23.364163   20.567489 O.3        1 MOL1        -0.5519
      53    H25     14.733778   24.146786   21.013833 H          1 MOL1         0.3769
      54    C16     16.792535   21.592862   20.877522 C.3        1 MOL1         0.1018
      55    H26     16.621338   21.477891   19.799732 H          1 MOL1         0.0783
      56    C17     18.285549   21.305751   21.202814 C.3        1 MOL1         0.1043
      57    H27     18.306695   20.537573   21.982178 H          1 MOL1         0.0783
      58    O14     18.962530   22.437037   21.767902 O.3        1 MOL1        -0.3740
      59    C18     19.110005   20.719275   20.030630 C.3        1 MOL1         0.0138
      60    H28     18.719664   19.723090   19.786093 H          1 MOL1         0.0794
      61    H29     20.137144   20.576999   20.387841 H          1 MOL1         0.0794
      62    O15     19.105789   21.546699   18.860798 O.3        1 MOL1        -0.5486
      63    H30     18.273517   21.381285   18.370189 H          1 MOL1         0.3769
      64    C19     23.473177   22.783242   22.230028 C.3        1 MOL1         0.2972
      65    H31     24.553126   22.763079   22.426275 H          1 MOL1         0.0751
      66    O16     22.998214   21.461325   21.901025 O.3        1 MOL1        -0.3740
      67    C20     22.736422   23.293165   23.503203 C.3        1 MOL1         0.1003
      68    H32     23.175993   24.260541   23.777432 H          1 MOL1         0.0783
      69    O17     22.940033   22.360604   24.575776 O.3        1 MOL1        -0.5519
      70    H33     22.702813   21.478928   24.216204 H          1 MOL1         0.3769
      71    C21     21.225547   23.513184   23.239292 C.3        1 MOL1         0.1053
      72    H34     20.811651   22.517124   23.066855 H          1 MOL1         0.0783
      73    O18     20.584804   24.125554   24.366525 O.3        1 MOL1        -0.5519
      74    H35     19.641642   23.818340   24.355133 H          1 MOL1         0.3769
      75    C22     21.045194   24.399678   21.975939 C.3        1 MOL1         0.1018
      76    H36     21.536776   25.353756   22.204502 H          1 MOL1         0.0783
      77    C23     21.779870   23.784756   20.756751 C.3        1 MOL1         0.1043
      78    H37     21.345701   22.799262   20.553295 H          1 MOL1         0.0783
      79    O19     23.182782   23.640771   21.098887 O.3        1 MOL1        -0.3740
      80    C24     21.678439   24.633189   19.463676 C.3        1 MOL1         0.0138
      81    H38     20.680417   24.494841   19.027921 H          1 MOL1         0.0794
      82    H39     22.401179   24.252770   18.730325 H          1 MOL1         0.0794
      83    O20     21.909972   26.025649   19.705582 O.3        1 MOL1        -0.5486
      84    H40     21.177135   26.346580   20.275950 H          1 MOL1         0.3769
      85    C25     24.498274   17.858903   20.403825 C.3        1 MOL1         0.2972
      86    H41     25.062291   17.089168   19.861481 H          1 MOL1         0.0751
      87    O21     23.332463   17.307759   21.046185 O.3        1 MOL1        -0.3740
      88    C26     25.382768   18.537732   21.480417 C.3        1 MOL1         0.1003
      89    H42     26.234399   18.992067   20.957495 H          1 MOL1         0.0783
      90    O22     25.877082   17.582396   22.432443 O.3        1 MOL1        -0.5519
      91    H43     25.094569   17.094260   22.795291 H          1 MOL1         0.3769
      92    C27     24.611053   19.671290   22.200900 C.3        1 MOL1         0.1053
      93    H44     23.817131   19.216382   22.806281 H          1 MOL1         0.0783
      94    O23     25.522756   20.379754   23.045740 O.3        1 MOL1        -0.5519
      95    H45     26.004109   19.685363   23.547094 H          1 MOL1         0.3769
      96    C28     23.955871   20.647281   21.186999 C.3        1 MOL1         0.1018
      97    H46     24.753766   21.258848   20.746085 H          1 MOL1         0.0783
      98    C29     23.205284   19.910054   20.041988 C.3        1 MOL1         0.1043
      99    H47     22.302426   19.443453   20.457715 H          1 MOL1         0.0783
     100    O24     24.063208   18.884246   19.487235 O.3        1 MOL1        -0.3740
     101    C30     22.764226   20.833067   18.875373 C.3        1 MOL1         0.0138
     102    H48     21.803554   21.292554   19.128316 H          1 MOL1         0.0794
     103    H49     22.588665   20.212713   17.986446 H          1 MOL1         0.0794
     104    O25     23.720597   21.858389   18.577158 O.3        1 MOL1        -0.5486
     105    H50     23.722656   22.486936   19.335223 H          1 MOL1         0.3769
     106    C31     21.305200   13.770165   21.668739 C.3        1 MOL1         0.2972
     107    H51     20.968319   12.732995   21.793469 H          1 MOL1         0.0751
     108    O26     20.207451   14.698843   21.727731 O.3        1 MOL1        -0.3740
     109    C32     22.294789   14.142716   22.797136 C.3        1 MOL1         0.1003
     110    H52     23.167947   13.483175   22.709540 H          1 MOL1         0.0783
     111    O27     21.678348   13.953368   24.080932 O.3        1 MOL1        -0.5519
     112    H53     20.706282   14.072669   23.949033 H          1 MOL1         0.3769
     113    C33     22.774499   15.603560   22.635888 C.3        1 MOL1         0.1053
     114    H54     21.912540   16.258333   22.808201 H          1 MOL1         0.0783
     115    O28     23.792143   15.880213   23.603482 O.3        1 MOL1        -0.5519
     116    H55     23.428551   15.545391   24.453385 H          1 MOL1         0.3769
     117    C34     23.310648   15.875046   21.208037 C.3        1 MOL1         0.1018
     118    H56     24.313493   15.435110   21.125172 H          1 MOL1         0.0783
     119    C35     22.382934   15.306714   20.095630 C.3        1 MOL1         0.1043
     120    H57     21.493607   15.947845   20.052898 H          1 MOL1         0.0783
     121    O29     21.974257   13.947889   20.403443 O.3        1 MOL1        -0.3740
     122    C36     23.021353   15.314865   18.686004 C.3        1 MOL1         0.0138
     123    H58     23.090990   16.354970   18.339793 H          1 MOL1         0.0794
     124    H59     22.351619   14.785910   17.994630 H          1 MOL1         0.0794
     125    O30     24.321215   14.711865   18.679306 O.3        1 MOL1        -0.5486
     126    H60     24.628639   14.676415   17.747276 H          1 MOL1         0.3769
     127    C1      17.321239   21.753747   24.622400 C.2        1 MOL1         0.6173
     128    O1      16.118741   21.581659   24.539629 O.co2      1 MOL1        -0.6755
     129    O2      17.845142   22.857367   24.620584 O.co2      1 MOL1        -0.6755
     130    C2      18.172868   20.532568   24.640126 C.2        1 MOL1        -0.1504
     131    H1      17.649809   19.585589   24.535615 H          1 MOL1         0.0814
     132    C3      19.519841   20.562152   24.740642 C.2        1 MOL1        -0.1394
     133    H2      20.039852   21.508271   24.864440 H          1 MOL1         0.0817
     134    C4      20.415328   19.344088   24.679734 C.3        1 MOL1        -0.1849
     135    H3      19.956535   18.491936   25.198794 H          1 MOL1         0.0736
     136    H4      21.343792   19.567347   25.221636 H          1 MOL1         0.0736
     137    C5      20.770349   18.962751   23.224876 C.3        1 MOL1        -0.1866
     138    H5      20.897265   19.871689   22.622577 H          1 MOL1         0.0738
     139    H6      21.739531   18.450796   23.222038 H          1 MOL1         0.0738
     140    C6      19.723448   18.033071   22.574967 C.3        1 MOL1        -0.2879
     141    H7      18.722998   18.479204   22.579381 H          1 MOL1         0.0750
     142    H8      19.998425   17.805731   21.537557 H          1 MOL1         0.0750
     143    H9      19.667317   17.086242   23.124008 H          1 MOL1         0.0750
@<TRIPOS>BOND
    1     1     2    1
    2     1     3    1
    3     1     4    1
    4     4     5    1
    5     4     6    1
    6     6     7    1
    7     4     8    1
    8     8     9    1
    9     8    10    1
   10    10    11    1
   11     8    12    1
   12    12    13    1
   13    12    14    1
   14    14    15    1
   15     1    16    1
   16    14    16    1
   17    14    17    1
   18    17    18    1
   19    17    19    1
   20    17    20    1
   21    20    21    1
   22    22    23    1
   23    22    24    1
   24    22    25    1
   25    25    26    1
   26    25    27    1
   27    27    28    1
   28    25    29    1
   29    29    30    1
   30    29    31    1
   31    31    32    1
   32     3    33    1
   33    29    33    1
   34    33    34    1
   35    33    35    1
   36    35    36    1
   37    22    37    1
   38    35    37    1
   39    35    38    1
   40    38    39    1
   41    38    40    1
   42    38    41    1
   43    41    42    1
   44    43    44    1
   45    43    45    1
   46    43    46    1
   47    46    47    1
   48    46    48    1
   49    48    49    1
   50    46    50    1
   51    50    51    1
   52    50    52    1
   53    52    53    1
   54    24    54    1
   55    50    54    1
   56    54    55    1
   57    54    56    1
   58    56    57    1
   59    43    58    1
   60    56    58    1
   61    56    59    1
   62    59    60    1
   63    59    61    1
   64    59    62    1
   65    62    63    1
   66    64    65    1
   67    64    66    1
   68    64    67    1
   69    67    68    1
   70    67    69    1
   71    69    70    1
   72    67    71    1
   73    71    72    1
   74    71    73    1
   75    73    74    1
   76    45    75    1
   77    71    75    1
   78    75    76    1
   79    75    77    1
   80    77    78    1
   81    64    79    1
   82    77    79    1
   83    77    80    1
   84    80    81    1
   85    80    82    1
   86    80    83    1
   87    83    84    1
   88    85    86    1
   89    85    87    1
   90    85    88    1
   91    88    89    1
   92    88    90    1
   93    90    91    1
   94    88    92    1
   95    92    93    1
   96    92    94    1
   97    94    95    1
   98    66    96    1
   99    92    96    1
  100    96    97    1
  101    96    98    1
  102    98    99    1
  103    85   100    1
  104    98   100    1
  105    98   101    1
  106   101   102    1
  107   101   103    1
  108   101   104    1
  109   104   105    1
  110   106   107    1
  111    12   108    1
  112   106   108    1
  113   106   109    1
  114   109   110    1
  115   109   111    1
  116   111   112    1
  117   109   113    1
  118   113   114    1
  119   113   115    1
  120   115   116    1
  121    87   117    1
  122   113   117    1
  123   117   118    1
  124   117   119    1
  125   119   120    1
  126   106   121    1
  127   119   121    1
  128   119   122    1
  129   122   123    1
  130   122   124    1
  131   122   125    1
  132   125   126    1
  133   127   128    1
  134   127   129    2
  135   127   130    1
  136   130   131    1
  137   130   132    2
  138   132   133    1
  139   132   134    1
  140   134   135    1
  141   134   136    1
  142   134   137    1
  143   137   138    1
  144   137   139    1
  145   137   140    1
  146   140   141    1
  147   140   142    1
  148   140   143    1
@<TRIPOS>SUBSTRUCTURE
       1 MOL1            1 RESIDUE      1      MOL     
       2 MOL1          143 RESIDUE      1      MOL     
@<SCITEGIC>MOL_PROPERTY
feprocess Rank
SciTegic.value.IntegerValue
186

@<SCITEGIC>MOL_PROPERTY
Conf_Id
SciTegic.value.IntegerValue
976

@<SCITEGIC>MOL_PROPERTY
Probability
SciTegic.value.DoubleValue
0.00

@<SCITEGIC>MOL_PROPERTY
G
SciTegic.value.DoubleValue
506.892

@<SCITEGIC>MOL_PROPERTY
E
SciTegic.value.DoubleValue
322.701

@<SCITEGIC>MOL_PROPERTY
-TS
SciTegic.value.DoubleValue
184.191

@<SCITEGIC>MOL_PROPERTY
U+W
SciTegic.value.DoubleValue
196.613

@<SCITEGIC>MOL_PROPERTY
U
SciTegic.value.DoubleValue
275.113

@<SCITEGIC>MOL_PROPERTY
W
SciTegic.value.DoubleValue
-78.500

@<SCITEGIC>MOL_PROPERTY
W(PB)
SciTegic.value.DoubleValue
-84.392

@<SCITEGIC>MOL_PROPERTY
W(SA)
SciTegic.value.DoubleValue
5.892

@<SCITEGIC>MOL_PROPERTY
Valence
SciTegic.value.DoubleValue
151.959

@<SCITEGIC>MOL_PROPERTY
Coulomb
SciTegic.value.DoubleValue
148.820

@<SCITEGIC>MOL_PROPERTY
VdW
SciTegic.value.DoubleValue
-25.666

@<SCITEGIC>MOL_PROPERTY
VdW6
SciTegic.value.DoubleValue
-185.411

@<SCITEGIC>MOL_PROPERTY
VdW12
SciTegic.value.DoubleValue
159.745

@<SCITEGIC>MOL_PROPERTY
Bond
SciTegic.value.DoubleValue
5.234

@<SCITEGIC>MOL_PROPERTY
Angle
SciTegic.value.DoubleValue
19.013

@<SCITEGIC>MOL_PROPERTY
Pdih
SciTegic.value.DoubleValue
127.700

@<SCITEGIC>MOL_PROPERTY
Idih
SciTegic.value.DoubleValue
0.012

@<SCITEGIC>MOL_PROPERTY
Tether
SciTegic.value.DoubleValue
0.000

@<TRIPOS>MOLECULE
CD_guest-s19_fast_vm2_rndm.mol2 : feprocess host+ligand conformer 187
         143         148           2
SMALL
USER_CHARGES
 
@<TRIPOS>ATOM
       1    C1      16.201956   15.531351   20.285001 C.3        1 MOL1         0.2972
       2    H1      15.223329   15.429945   19.798293 H          1 MOL1         0.0751
       3    O1      16.293465   16.740505   21.056108 O.3        1 MOL1        -0.3740
       4    C2      16.477159   14.344062   21.243747 C.3        1 MOL1         0.1003
       5    H2      16.441650   13.422425   20.648559 H          1 MOL1         0.0783
       6    O2      15.483880   14.280982   22.281151 O.3        1 MOL1        -0.5519
       7    H3      15.435159   15.178112   22.698166 H          1 MOL1         0.3769
       8    C3      17.889986   14.463235   21.866814 C.3        1 MOL1         0.1053
       9    H4      17.887304   15.337362   22.528294 H          1 MOL1         0.0783
      10    O3      18.186209   13.282776   22.620115 O.3        1 MOL1        -0.5519
      11    H5      17.382506   13.111494   23.158834 H          1 MOL1         0.3769
      12    C4      18.975508   14.689313   20.785553 C.3        1 MOL1         0.1018
      13    H6      19.096672   13.756790   20.218815 H          1 MOL1         0.0783
      14    C5      18.585366   15.833033   19.807827 C.3        1 MOL1         0.1043
      15    H7      18.586356   16.779417   20.364462 H          1 MOL1         0.0783
      16    O4      17.254654   15.569493   19.297165 O.3        1 MOL1        -0.3740
      17    C6      19.534714   16.024043   18.597537 C.3        1 MOL1         0.0138
      18    H8      20.343093   16.703599   18.891885 H          1 MOL1         0.0794
      19    H9      18.978280   16.526775   17.795248 H          1 MOL1         0.0794
      20    O5      20.089078   14.795883   18.113041 O.3        1 MOL1        -0.5486
      21    H10     20.828204   14.557964   18.720066 H          1 MOL1         0.3769
      22    C7      14.510933   20.263895   21.940237 C.3        1 MOL1         0.2972
      23    H11     13.897486   21.147181   22.160105 H          1 MOL1         0.0751
      24    O6      15.913051   20.585847   21.870466 O.3        1 MOL1        -0.3740
      25    C8      14.326352   19.200098   23.046722 C.3        1 MOL1         0.1003
      26    H12     13.280221   18.868042   23.025622 H          1 MOL1         0.0783
      27    O7      14.626846   19.764092   24.333224 O.3        1 MOL1        -0.5519
      28    H13     15.295311   20.476622   24.183451 H          1 MOL1         0.3769
      29    C9      15.229802   17.978105   22.766502 C.3        1 MOL1         0.1053
      30    H14     16.269573   18.302710   22.900400 H          1 MOL1         0.0783
      31    O8      14.937707   16.927922   23.694819 O.3        1 MOL1        -0.5519
      32    H15     14.933590   17.362118   24.576439 H          1 MOL1         0.3769
      33    C10     15.071022   17.449162   21.318164 C.3        1 MOL1         0.1018
      34    H16     14.192906   16.790924   21.279437 H          1 MOL1         0.0783
      35    C11     14.966156   18.567750   20.238785 C.3        1 MOL1         0.1043
      36    H17     15.981517   18.945558   20.069166 H          1 MOL1         0.0783
      37    O9      14.127671   19.664296   20.687119 O.3        1 MOL1        -0.3740
      38    C12     14.435378   18.075477   18.871109 C.3        1 MOL1         0.0138
      39    H18     15.210661   17.460587   18.394643 H          1 MOL1         0.0794
      40    H19     14.271257   18.948074   18.224492 H          1 MOL1         0.0794
      41    O10     13.225838   17.319158   19.002445 O.3        1 MOL1        -0.5486
      42    H20     12.901781   17.114808   18.098022 H          1 MOL1         0.3769
      43    C13     18.567789   23.751954   21.374368 C.3        1 MOL1         0.2972
      44    H21     18.992086   24.744453   21.183004 H          1 MOL1         0.0751
      45    O11     19.605519   22.766195   21.562616 O.3        1 MOL1        -0.3740
      46    C14     17.666780   23.811927   22.637044 C.3        1 MOL1         0.1003
      47    H22     16.883692   24.554881   22.438587 H          1 MOL1         0.0783
      48    O12     18.410171   24.219391   23.794909 O.3        1 MOL1        -0.5519
      49    H23     19.071260   23.495927   23.982728 H          1 MOL1         0.3769
      50    C15     16.979434   22.453385   22.891815 C.3        1 MOL1         0.1053
      51    H24     17.761225   21.725066   23.139200 H          1 MOL1         0.0783
      52    O13     16.056110   22.567375   23.980470 O.3        1 MOL1        -0.5519
      53    H25     16.556372   23.032396   24.687810 H          1 MOL1         0.3769
      54    C16     16.244333   21.961738   21.624517 C.3        1 MOL1         0.1018
      55    H26     15.355319   22.585129   21.461407 H          1 MOL1         0.0783
      56    C17     17.159166   22.013084   20.370588 C.3        1 MOL1         0.1043
      57    H27     17.949795   21.270047   20.517291 H          1 MOL1         0.0783
      58    O14     17.755632   23.329633   20.253952 O.3        1 MOL1        -0.3740
      59    C18     16.458014   21.675541   19.027485 C.3        1 MOL1         0.0138
      60    H28     16.582793   20.605059   18.825191 H          1 MOL1         0.0794
      61    H29     16.977189   22.206388   18.218308 H          1 MOL1         0.0794
      62    O15     15.065256   22.010056   19.012815 O.3        1 MOL1        -0.5486
      63    H30     14.597564   21.327195   19.548235 H          1 MOL1         0.3769
      64    C19     23.702585   22.428070   20.566356 C.3        1 MOL1         0.2972
      65    H31     24.640694   22.503667   20.003860 H          1 MOL1         0.0751
      66    O16     23.890493   21.697762   21.789313 O.3        1 MOL1        -0.3740
      67    C20     23.201961   23.852803   20.918789 C.3        1 MOL1         0.1003
      68    H32     23.136226   24.410953   19.975750 H          1 MOL1         0.0783
      69    O17     24.138452   24.505396   21.788487 O.3        1 MOL1        -0.5519
      70    H33     24.304733   23.869717   22.521303 H          1 MOL1         0.3769
      71    C21     21.793887   23.854607   21.566947 C.3        1 MOL1         0.1053
      72    H34     21.877445   23.451914   22.585752 H          1 MOL1         0.0783
      73    O18     21.337246   25.210819   21.609155 O.3        1 MOL1        -0.5519
      74    H35     22.060550   25.714536   22.042399 H          1 MOL1         0.3769
      75    C22     20.800826   22.960544   20.776132 C.3        1 MOL1         0.1018
      76    H36     20.570206   23.443223   19.817456 H          1 MOL1         0.0783
      77    C23     21.419574   21.564745   20.499615 C.3        1 MOL1         0.1043
      78    H37     21.594378   21.065295   21.461958 H          1 MOL1         0.0783
      79    O19     22.676427   21.752636   19.804171 O.3        1 MOL1        -0.3740
      80    C24     20.529523   20.620648   19.655350 C.3        1 MOL1         0.0138
      81    H38     19.783856   20.165576   20.320024 H          1 MOL1         0.0794
      82    H39     21.151752   19.802462   19.269701 H          1 MOL1         0.0794
      83    O20     19.877113   21.296316   18.572868 O.3        1 MOL1        -0.5486
      84    H40     19.339551   22.020930   18.960579 H          1 MOL1         0.3769
      85    C25     25.196447   17.753682   22.276316 C.3        1 MOL1         0.2972
      86    H41     25.786810   16.840055   22.423265 H          1 MOL1         0.0751
      87    O21     23.789190   17.462113   22.154781 O.3        1 MOL1        -0.3740
      88    C26     25.410372   18.702169   23.476968 C.3        1 MOL1         0.1003
      89    H42     26.478046   18.950538   23.529007 H          1 MOL1         0.0783
      90    O22     25.016049   18.028801   24.684494 O.3        1 MOL1        -0.5519
      91    H43     24.313080   17.380936   24.436750 H          1 MOL1         0.3769
      92    C27     24.622036   20.016685   23.265357 C.3        1 MOL1         0.1053
      93    H44     23.559059   19.756436   23.280181 H          1 MOL1         0.0783
      94    O23     24.883623   20.955326   24.314869 O.3        1 MOL1        -0.5519
      95    H45     24.014894   21.420480   24.447962 H          1 MOL1         0.3769
      96    C28     24.913466   20.672939   21.888029 C.3        1 MOL1         0.1018
      97    H46     25.910338   21.130577   21.918082 H          1 MOL1         0.0783
      98    C29     24.855893   19.625584   20.721383 C.3        1 MOL1         0.1043
      99    H47     23.804415   19.358915   20.558710 H          1 MOL1         0.0783
     100    O24     25.607620   18.436555   21.080438 O.3        1 MOL1        -0.3740
     101    C30     25.452464   20.081439   19.362348 C.3        1 MOL1         0.0138
     102    H48     24.713896   20.676753   18.813315 H          1 MOL1         0.0794
     103    H49     25.639947   19.188563   18.750387 H          1 MOL1         0.0794
     104    O25     26.665692   20.825857   19.523144 O.3        1 MOL1        -0.5486
     105    H50     27.039234   20.985542   18.628945 H          1 MOL1         0.3769
     106    C31     21.307754   14.186727   21.282384 C.3        1 MOL1         0.2972
     107    H51     20.981664   13.178115   20.997569 H          1 MOL1         0.0751
     108    O26     20.180543   15.060410   21.485881 O.3        1 MOL1        -0.3740
     109    C32     22.110780   14.111123   22.606735 C.3        1 MOL1         0.1003
     110    H52     22.943671   13.414205   22.446718 H          1 MOL1         0.0783
     111    O27     21.277321   13.616589   23.666081 O.3        1 MOL1        -0.5519
     112    H53     20.354843   13.892593   23.448561 H          1 MOL1         0.3769
     113    C33     22.708832   15.485517   22.988287 C.3        1 MOL1         0.1053
     114    H54     21.883608   16.157058   23.251151 H          1 MOL1         0.0783
     115    O28     23.584631   15.332690   24.109524 O.3        1 MOL1        -0.5519
     116    H55     23.082758   14.781586   24.750410 H          1 MOL1         0.3769
     117    C34     23.473610   16.103438   21.795289 C.3        1 MOL1         0.1018
     118    H56     24.374893   15.504530   21.608476 H          1 MOL1         0.0783
     119    C35     22.601711   16.115302   20.511913 C.3        1 MOL1         0.1043
     120    H57     21.739684   16.770493   20.692898 H          1 MOL1         0.0783
     121    O29     22.140548   14.764860   20.252577 O.3        1 MOL1        -0.3740
     122    C36     23.318601   16.637857   19.239636 C.3        1 MOL1         0.0138
     123    H58     23.208251   17.728189   19.198182 H          1 MOL1         0.0794
     124    H59     22.803603   16.235238   18.357180 H          1 MOL1         0.0794
     125    O30     24.707794   16.293237   19.193156 O.3        1 MOL1        -0.5486
     126    H60     25.176670   16.899312   19.812948 H          1 MOL1         0.3769
     127    C1      20.950191   21.302341   24.356053 C.2        1 MOL1         0.6173
     128    O1      22.110063   21.662168   24.445729 O.co2      1 MOL1        -0.6755
     129    O2      20.004371   22.047429   24.536132 O.co2      1 MOL1        -0.6755
     130    C2      20.701347   19.880018   23.988735 C.2        1 MOL1        -0.1504
     131    H1      21.583421   19.264511   23.847408 H          1 MOL1         0.0814
     132    C3      19.475538   19.326544   23.850040 C.2        1 MOL1        -0.1394
     133    H2      18.572714   19.910921   24.012514 H          1 MOL1         0.0817
     134    C4      19.258436   17.869324   23.501685 C.3        1 MOL1        -0.1849
     135    H3      20.144403   17.463319   23.000941 H          1 MOL1         0.0736
     136    H4      18.441949   17.786242   22.774819 H          1 MOL1         0.0736
     137    C5      18.921758   17.017615   24.747225 C.3        1 MOL1        -0.1866
     138    H5      18.003334   17.399224   25.213960 H          1 MOL1         0.0738
     139    H6      18.710945   15.986364   24.439767 H          1 MOL1         0.0738
     140    C6      20.060365   16.993364   25.789599 C.3        1 MOL1        -0.2879
     141    H7      20.251011   17.996440   26.192009 H          1 MOL1         0.0750
     142    H8      19.797732   16.339060   26.630477 H          1 MOL1         0.0750
     143    H9      20.992107   16.618990   25.348990 H          1 MOL1         0.0750
@<TRIPOS>BOND
    1     1     2    1
    2     1     3    1
    3     1     4    1
    4     4     5    1
    5     4     6    1
    6     6     7    1
    7     4     8    1
    8     8     9    1
    9     8    10    1
   10    10    11    1
   11     8    12    1
   12    12    13    1
   13    12    14    1
   14    14    15    1
   15     1    16    1
   16    14    16    1
   17    14    17    1
   18    17    18    1
   19    17    19    1
   20    17    20    1
   21    20    21    1
   22    22    23    1
   23    22    24    1
   24    22    25    1
   25    25    26    1
   26    25    27    1
   27    27    28    1
   28    25    29    1
   29    29    30    1
   30    29    31    1
   31    31    32    1
   32     3    33    1
   33    29    33    1
   34    33    34    1
   35    33    35    1
   36    35    36    1
   37    22    37    1
   38    35    37    1
   39    35    38    1
   40    38    39    1
   41    38    40    1
   42    38    41    1
   43    41    42    1
   44    43    44    1
   45    43    45    1
   46    43    46    1
   47    46    47    1
   48    46    48    1
   49    48    49    1
   50    46    50    1
   51    50    51    1
   52    50    52    1
   53    52    53    1
   54    24    54    1
   55    50    54    1
   56    54    55    1
   57    54    56    1
   58    56    57    1
   59    43    58    1
   60    56    58    1
   61    56    59    1
   62    59    60    1
   63    59    61    1
   64    59    62    1
   65    62    63    1
   66    64    65    1
   67    64    66    1
   68    64    67    1
   69    67    68    1
   70    67    69    1
   71    69    70    1
   72    67    71    1
   73    71    72    1
   74    71    73    1
   75    73    74    1
   76    45    75    1
   77    71    75    1
   78    75    76    1
   79    75    77    1
   80    77    78    1
   81    64    79    1
   82    77    79    1
   83    77    80    1
   84    80    81    1
   85    80    82    1
   86    80    83    1
   87    83    84    1
   88    85    86    1
   89    85    87    1
   90    85    88    1
   91    88    89    1
   92    88    90    1
   93    90    91    1
   94    88    92    1
   95    92    93    1
   96    92    94    1
   97    94    95    1
   98    66    96    1
   99    92    96    1
  100    96    97    1
  101    96    98    1
  102    98    99    1
  103    85   100    1
  104    98   100    1
  105    98   101    1
  106   101   102    1
  107   101   103    1
  108   101   104    1
  109   104   105    1
  110   106   107    1
  111    12   108    1
  112   106   108    1
  113   106   109    1
  114   109   110    1
  115   109   111    1
  116   111   112    1
  117   109   113    1
  118   113   114    1
  119   113   115    1
  120   115   116    1
  121    87   117    1
  122   113   117    1
  123   117   118    1
  124   117   119    1
  125   119   120    1
  126   106   121    1
  127   119   121    1
  128   119   122    1
  129   122   123    1
  130   122   124    1
  131   122   125    1
  132   125   126    1
  133   127   128    1
  134   127   129    2
  135   127   130    1
  136   130   131    1
  137   130   132    2
  138   132   133    1
  139   132   134    1
  140   134   135    1
  141   134   136    1
  142   134   137    1
  143   137   138    1
  144   137   139    1
  145   137   140    1
  146   140   141    1
  147   140   142    1
  148   140   143    1
@<TRIPOS>SUBSTRUCTURE
       1 MOL1            1 RESIDUE      1      MOL     
       2 MOL1          143 RESIDUE      1      MOL     
@<SCITEGIC>MOL_PROPERTY
feprocess Rank
SciTegic.value.IntegerValue
187

@<SCITEGIC>MOL_PROPERTY
Conf_Id
SciTegic.value.IntegerValue
996

@<SCITEGIC>MOL_PROPERTY
Probability
SciTegic.value.DoubleValue
0.00

@<SCITEGIC>MOL_PROPERTY
G
SciTegic.value.DoubleValue
506.982

@<SCITEGIC>MOL_PROPERTY
E
SciTegic.value.DoubleValue
323.559

@<SCITEGIC>MOL_PROPERTY
-TS
SciTegic.value.DoubleValue
183.423

@<SCITEGIC>MOL_PROPERTY
U+W
SciTegic.value.DoubleValue
197.470

@<SCITEGIC>MOL_PROPERTY
U
SciTegic.value.DoubleValue
271.893

@<SCITEGIC>MOL_PROPERTY
W
SciTegic.value.DoubleValue
-74.422

@<SCITEGIC>MOL_PROPERTY
W(PB)
SciTegic.value.DoubleValue
-80.349

@<SCITEGIC>MOL_PROPERTY
W(SA)
SciTegic.value.DoubleValue
5.927

@<SCITEGIC>MOL_PROPERTY
Valence
SciTegic.value.DoubleValue
149.582

@<SCITEGIC>MOL_PROPERTY
Coulomb
SciTegic.value.DoubleValue
145.966

@<SCITEGIC>MOL_PROPERTY
VdW
SciTegic.value.DoubleValue
-23.655

@<SCITEGIC>MOL_PROPERTY
VdW6
SciTegic.value.DoubleValue
-178.202

@<SCITEGIC>MOL_PROPERTY
VdW12
SciTegic.value.DoubleValue
154.547

@<SCITEGIC>MOL_PROPERTY
Bond
SciTegic.value.DoubleValue
4.981

@<SCITEGIC>MOL_PROPERTY
Angle
SciTegic.value.DoubleValue
16.024

@<SCITEGIC>MOL_PROPERTY
Pdih
SciTegic.value.DoubleValue
128.573

@<SCITEGIC>MOL_PROPERTY
Idih
SciTegic.value.DoubleValue
0.003

@<SCITEGIC>MOL_PROPERTY
Tether
SciTegic.value.DoubleValue
0.000

@<TRIPOS>MOLECULE
CD_guest-s19_fast_vm2_rndm.mol2 : feprocess host+ligand conformer 188
         143         148           2
SMALL
USER_CHARGES
 
@<TRIPOS>ATOM
       1    C1      15.934613   15.271833   20.634443 C.3        1 MOL1         0.2972
       2    H1      14.952733   15.043650   20.200405 H          1 MOL1         0.0751
       3    O1      15.817986   16.207594   21.722934 O.3        1 MOL1        -0.3740
       4    C2      16.576250   13.979478   21.206135 C.3        1 MOL1         0.1003
       5    H2      16.659594   13.257875   20.383006 H          1 MOL1         0.0783
       6    O2      15.750114   13.429620   22.242546 O.3        1 MOL1        -0.5519
       7    H3      15.523372   14.183390   22.833763 H          1 MOL1         0.3769
       8    C3      17.998040   14.253687   21.755169 C.3        1 MOL1         0.1053
       9    H4      17.905880   14.892883   22.642192 H          1 MOL1         0.0783
      10    O3      18.620478   13.016289   22.118367 O.3        1 MOL1        -0.5519
      11    H5      17.931756   12.516314   22.611034 H          1 MOL1         0.3769
      12    C4      18.853553   14.997756   20.702010 C.3        1 MOL1         0.1018
      13    H6      19.058341   14.309944   19.870559 H          1 MOL1         0.0783
      14    C5      18.128658   16.244079   20.137096 C.3        1 MOL1         0.1043
      15    H7      17.995204   16.974324   20.944654 H          1 MOL1         0.0783
      16    O4      16.833240   15.827576   19.642792 O.3        1 MOL1        -0.3740
      17    C6      18.903286   16.960730   18.999903 C.3        1 MOL1         0.0138
      18    H8      19.600801   17.675785   19.454451 H          1 MOL1         0.0794
      19    H9      18.190609   17.541874   18.400403 H          1 MOL1         0.0794
      20    O5      19.631421   16.059897   18.156379 O.3        1 MOL1        -0.5486
      21    H10     20.370623   15.687689   18.690946 H          1 MOL1         0.3769
      22    C7      14.503487   20.108129   21.889564 C.3        1 MOL1         0.2972
      23    H11     13.958386   21.059633   21.945223 H          1 MOL1         0.0751
      24    O6      15.925663   20.319779   21.797484 O.3        1 MOL1        -0.3740
      25    C8      14.190989   19.264227   23.141262 C.3        1 MOL1         0.1003
      26    H12     13.111537   19.064081   23.143972 H          1 MOL1         0.0783
      27    O7      14.545556   19.985976   24.332342 O.3        1 MOL1        -0.5519
      28    H13     15.058631   20.778872   24.042502 H          1 MOL1         0.3769
      29    C9      14.930348   17.911465   23.084724 C.3        1 MOL1         0.1053
      30    H14     16.003099   18.119976   23.197887 H          1 MOL1         0.0783
      31    O8      14.483300   17.098520   24.174840 O.3        1 MOL1        -0.5519
      32    H15     14.541799   17.680797   24.964277 H          1 MOL1         0.3769
      33    C10     14.727277   17.161630   21.737448 C.3        1 MOL1         0.1018
      34    H16     13.761050   16.642764   21.772076 H          1 MOL1         0.0783
      35    C11     14.777318   18.105698   20.485440 C.3        1 MOL1         0.1043
      36    H17     15.830651   18.314465   20.269902 H          1 MOL1         0.0783
      37    O9      14.089547   19.358474   20.736109 O.3        1 MOL1        -0.3740
      38    C12     14.127388   17.533271   19.196648 C.3        1 MOL1         0.0138
      39    H18     14.803979   16.814430   18.722398 H          1 MOL1         0.0794
      40    H19     14.001090   18.355348   18.479018 H          1 MOL1         0.0794
      41    O10     12.862461   16.913316   19.456475 O.3        1 MOL1        -0.5486
      42    H20     12.468927   16.663801   18.591787 H          1 MOL1         0.3769
      43    C13     18.425723   23.590871   20.955631 C.3        1 MOL1         0.2972
      44    H21     18.803962   24.538670   20.553748 H          1 MOL1         0.0751
      45    O11     19.453291   22.879141   21.666893 O.3        1 MOL1        -0.3740
      46    C14     17.252345   23.856977   21.937566 C.3        1 MOL1         0.1003
      47    H22     16.464448   24.361774   21.363651 H          1 MOL1         0.0783
      48    O12     17.646508   24.712796   23.022328 O.3        1 MOL1        -0.5519
      49    H23     18.442750   24.312141   23.468400 H          1 MOL1         0.3769
      50    C15     16.665745   22.527259   22.470016 C.3        1 MOL1         0.1053
      51    H24     17.433909   22.022398   23.072176 H          1 MOL1         0.0783
      52    O13     15.513044   22.796880   23.275215 O.3        1 MOL1        -0.5519
      53    H25     15.771191   23.559880   23.840023 H          1 MOL1         0.3769
      54    C16     16.290059   21.611958   21.279426 C.3        1 MOL1         0.1018
      55    H26     15.461172   22.074796   20.726806 H          1 MOL1         0.0783
      56    C17     17.483322   21.427828   20.308690 C.3        1 MOL1         0.1043
      57    H27     18.281314   20.908376   20.851548 H          1 MOL1         0.0783
      58    O14     17.948370   22.735389   19.889751 O.3        1 MOL1        -0.3740
      59    C18     17.159769   20.587431   19.047375 C.3        1 MOL1         0.0138
      60    H28     17.313496   19.529792   19.290384 H          1 MOL1         0.0794
      61    H29     17.882816   20.840550   18.260560 H          1 MOL1         0.0794
      62    O15     15.822745   20.781792   18.568844 O.3        1 MOL1        -0.5486
      63    H30     15.207798   20.427008   19.251497 H          1 MOL1         0.3769
      64    C19     23.526313   22.340962   21.198889 C.3        1 MOL1         0.2972
      65    H31     23.394018   22.104152   20.137677 H          1 MOL1         0.0751
      66    O16     24.924000   22.158541   21.543220 O.3        1 MOL1        -0.3740
      67    C20     23.102536   23.811787   21.444103 C.3        1 MOL1         0.1003
      68    H32     23.561773   24.403469   20.641995 H          1 MOL1         0.0783
      69    O17     23.569683   24.310754   22.708591 O.3        1 MOL1        -0.5519
      70    H33     23.088676   23.795366   23.413103 H          1 MOL1         0.3769
      71    C21     21.559771   24.009690   21.382547 C.3        1 MOL1         0.1053
      72    H34     21.231683   24.305397   22.387980 H          1 MOL1         0.0783
      73    O18     21.256479   25.084211   20.484969 O.3        1 MOL1        -0.5519
      74    H35     21.656419   25.891788   20.873163 H          1 MOL1         0.3769
      75    C22     20.730438   22.744301   21.008594 C.3        1 MOL1         0.1018
      76    H36     20.608379   22.701596   19.919193 H          1 MOL1         0.0783
      77    C23     21.314161   21.391088   21.518855 C.3        1 MOL1         0.1043
      78    H37     20.720406   21.085241   22.386023 H          1 MOL1         0.0783
      79    O19     22.674395   21.497794   21.977362 O.3        1 MOL1        -0.3740
      80    C24     21.213815   20.217477   20.512662 C.3        1 MOL1         0.0138
      81    H38     20.163039   19.923344   20.406952 H          1 MOL1         0.0794
      82    H39     21.740442   19.363053   20.955081 H          1 MOL1         0.0794
      83    O20     21.770302   20.518227   19.226571 O.3        1 MOL1        -0.5486
      84    H40     21.110632   21.034778   18.718262 H          1 MOL1         0.3769
      85    C25     25.285177   17.912588   21.979580 C.3        1 MOL1         0.2972
      86    H41     25.772595   16.932635   22.061915 H          1 MOL1         0.0751
      87    O21     23.850101   17.779564   21.920905 O.3        1 MOL1        -0.3740
      88    C26     25.674549   18.766226   23.212623 C.3        1 MOL1         0.1003
      89    H42     26.771147   18.813994   23.232829 H          1 MOL1         0.0783
      90    O22     25.214444   18.145529   24.424030 O.3        1 MOL1        -0.5519
      91    H43     24.503778   17.504801   24.169642 H          1 MOL1         0.3769
      92    C27     25.147540   20.216622   23.111569 C.3        1 MOL1         0.1053
      93    H44     24.063459   20.176103   23.254830 H          1 MOL1         0.0783
      94    O23     25.753209   20.981063   24.158605 O.3        1 MOL1        -0.5519
      95    H45     25.574764   20.474211   24.980729 H          1 MOL1         0.3769
      96    C28     25.495208   20.829301   21.722286 C.3        1 MOL1         0.1018
      97    H46     26.586695   20.939071   21.713524 H          1 MOL1         0.0783
      98    C29     25.119562   19.883134   20.544208 C.3        1 MOL1         0.1043
      99    H47     24.030075   19.775016   20.509687 H          1 MOL1         0.0783
     100    O24     25.717439   18.584208   20.777527 O.3        1 MOL1        -0.3740
     101    C30     25.585533   20.381648   19.153392 C.3        1 MOL1         0.0138
     102    H48     24.939051   21.210470   18.837454 H          1 MOL1         0.0794
     103    H49     25.443195   19.571174   18.426083 H          1 MOL1         0.0794
     104    O25     26.953048   20.807931   19.153551 O.3        1 MOL1        -0.5486
     105    H50     27.008561   21.617900   19.705840 H          1 MOL1         0.3769
     106    C31     21.198409   14.592036   21.087080 C.3        1 MOL1         0.2972
     107    H51     20.880452   13.585861   20.783787 H          1 MOL1         0.0751
     108    O26     20.064984   15.440279   21.337248 O.3        1 MOL1        -0.3740
     109    C32     22.040334   14.492222   22.386616 C.3        1 MOL1         0.1003
     110    H52     22.863467   13.795091   22.182755 H          1 MOL1         0.0783
     111    O27     21.247699   13.976783   23.468756 O.3        1 MOL1        -0.5519
     112    H53     20.351371   13.785894   23.099462 H          1 MOL1         0.3769
     113    C33     22.657711   15.856895   22.771696 C.3        1 MOL1         0.1053
     114    H54     21.847171   16.539072   23.063589 H          1 MOL1         0.0783
     115    O28     23.565127   15.674292   23.863276 O.3        1 MOL1        -0.5519
     116    H55     23.070926   15.120808   24.508714 H          1 MOL1         0.3769
     117    C34     23.397100   16.459971   21.556385 C.3        1 MOL1         0.1018
     118    H56     24.234988   15.798098   21.299428 H          1 MOL1         0.0783
     119    C35     22.458566   16.548152   20.325627 C.3        1 MOL1         0.1043
     120    H57     21.612152   17.197897   20.577759 H          1 MOL1         0.0783
     121    O29     21.972421   15.213643   20.035265 O.3        1 MOL1        -0.3740
     122    C36     23.123462   17.118782   19.046877 C.3        1 MOL1         0.0138
     123    H58     23.114487   18.213958   19.105933 H          1 MOL1         0.0794
     124    H59     22.510122   16.842851   18.178884 H          1 MOL1         0.0794
     125    O30     24.468590   16.660956   18.865691 O.3        1 MOL1        -0.5486
     126    H60     25.038282   17.196978   19.465536 H          1 MOL1         0.3769
     127    C1      20.617688   22.978825   24.734875 C.2        1 MOL1         0.6173
     128    O1      21.815274   23.163837   24.614289 O.co2      1 MOL1        -0.6755
     129    O2      19.793345   23.869636   24.652236 O.co2      1 MOL1        -0.6755
     130    C2      20.098843   21.597899   24.924745 C.2        1 MOL1        -0.1504
     131    H1      19.020413   21.510401   25.031314 H          1 MOL1         0.0814
     132    C3      20.875023   20.490165   24.933707 C.2        1 MOL1        -0.1394
     133    H2      21.955585   20.563343   24.810155 H          1 MOL1         0.0817
     134    C4      20.319738   19.089870   25.074955 C.3        1 MOL1        -0.1849
     135    H3      19.692941   19.034514   25.975000 H          1 MOL1         0.0736
     136    H4      21.141750   18.376030   25.220439 H          1 MOL1         0.0736
     137    C5      19.491193   18.676530   23.839188 C.3        1 MOL1        -0.1866
     138    H5      18.708873   19.423780   23.647465 H          1 MOL1         0.0738
     139    H6      20.137127   18.651433   22.951870 H          1 MOL1         0.0738
     140    C6      18.831453   17.299323   24.037860 C.3        1 MOL1        -0.2879
     141    H7      18.195853   17.292647   24.932735 H          1 MOL1         0.0750
     142    H8      18.198567   17.053982   23.179678 H          1 MOL1         0.0750
     143    H9      19.586777   16.509984   24.145481 H          1 MOL1         0.0750
@<TRIPOS>BOND
    1     1     2    1
    2     1     3    1
    3     1     4    1
    4     4     5    1
    5     4     6    1
    6     6     7    1
    7     4     8    1
    8     8     9    1
    9     8    10    1
   10    10    11    1
   11     8    12    1
   12    12    13    1
   13    12    14    1
   14    14    15    1
   15     1    16    1
   16    14    16    1
   17    14    17    1
   18    17    18    1
   19    17    19    1
   20    17    20    1
   21    20    21    1
   22    22    23    1
   23    22    24    1
   24    22    25    1
   25    25    26    1
   26    25    27    1
   27    27    28    1
   28    25    29    1
   29    29    30    1
   30    29    31    1
   31    31    32    1
   32     3    33    1
   33    29    33    1
   34    33    34    1
   35    33    35    1
   36    35    36    1
   37    22    37    1
   38    35    37    1
   39    35    38    1
   40    38    39    1
   41    38    40    1
   42    38    41    1
   43    41    42    1
   44    43    44    1
   45    43    45    1
   46    43    46    1
   47    46    47    1
   48    46    48    1
   49    48    49    1
   50    46    50    1
   51    50    51    1
   52    50    52    1
   53    52    53    1
   54    24    54    1
   55    50    54    1
   56    54    55    1
   57    54    56    1
   58    56    57    1
   59    43    58    1
   60    56    58    1
   61    56    59    1
   62    59    60    1
   63    59    61    1
   64    59    62    1
   65    62    63    1
   66    64    65    1
   67    64    66    1
   68    64    67    1
   69    67    68    1
   70    67    69    1
   71    69    70    1
   72    67    71    1
   73    71    72    1
   74    71    73    1
   75    73    74    1
   76    45    75    1
   77    71    75    1
   78    75    76    1
   79    75    77    1
   80    77    78    1
   81    64    79    1
   82    77    79    1
   83    77    80    1
   84    80    81    1
   85    80    82    1
   86    80    83    1
   87    83    84    1
   88    85    86    1
   89    85    87    1
   90    85    88    1
   91    88    89    1
   92    88    90    1
   93    90    91    1
   94    88    92    1
   95    92    93    1
   96    92    94    1
   97    94    95    1
   98    66    96    1
   99    92    96    1
  100    96    97    1
  101    96    98    1
  102    98    99    1
  103    85   100    1
  104    98   100    1
  105    98   101    1
  106   101   102    1
  107   101   103    1
  108   101   104    1
  109   104   105    1
  110   106   107    1
  111    12   108    1
  112   106   108    1
  113   106   109    1
  114   109   110    1
  115   109   111    1
  116   111   112    1
  117   109   113    1
  118   113   114    1
  119   113   115    1
  120   115   116    1
  121    87   117    1
  122   113   117    1
  123   117   118    1
  124   117   119    1
  125   119   120    1
  126   106   121    1
  127   119   121    1
  128   119   122    1
  129   122   123    1
  130   122   124    1
  131   122   125    1
  132   125   126    1
  133   127   128    1
  134   127   129    2
  135   127   130    1
  136   130   131    1
  137   130   132    2
  138   132   133    1
  139   132   134    1
  140   134   135    1
  141   134   136    1
  142   134   137    1
  143   137   138    1
  144   137   139    1
  145   137   140    1
  146   140   141    1
  147   140   142    1
  148   140   143    1
@<TRIPOS>SUBSTRUCTURE
       1 MOL1            1 RESIDUE      1      MOL     
       2 MOL1          143 RESIDUE      1      MOL     
@<SCITEGIC>MOL_PROPERTY
feprocess Rank
SciTegic.value.IntegerValue
188

@<SCITEGIC>MOL_PROPERTY
Conf_Id
SciTegic.value.IntegerValue
538

@<SCITEGIC>MOL_PROPERTY
Probability
SciTegic.value.DoubleValue
0.00

@<SCITEGIC>MOL_PROPERTY
G
SciTegic.value.DoubleValue
507.288

@<SCITEGIC>MOL_PROPERTY
E
SciTegic.value.DoubleValue
325.577

@<SCITEGIC>MOL_PROPERTY
-TS
SciTegic.value.DoubleValue
181.711

@<SCITEGIC>MOL_PROPERTY
U+W
SciTegic.value.DoubleValue
199.489

@<SCITEGIC>MOL_PROPERTY
U
SciTegic.value.DoubleValue
279.595

@<SCITEGIC>MOL_PROPERTY
W
SciTegic.value.DoubleValue
-80.106

@<SCITEGIC>MOL_PROPERTY
W(PB)
SciTegic.value.DoubleValue
-85.992

@<SCITEGIC>MOL_PROPERTY
W(SA)
SciTegic.value.DoubleValue
5.886

@<SCITEGIC>MOL_PROPERTY
Valence
SciTegic.value.DoubleValue
149.500

@<SCITEGIC>MOL_PROPERTY
Coulomb
SciTegic.value.DoubleValue
154.177

@<SCITEGIC>MOL_PROPERTY
VdW
SciTegic.value.DoubleValue
-24.082

@<SCITEGIC>MOL_PROPERTY
VdW6
SciTegic.value.DoubleValue
-180.865

@<SCITEGIC>MOL_PROPERTY
VdW12
SciTegic.value.DoubleValue
156.783

@<SCITEGIC>MOL_PROPERTY
Bond
SciTegic.value.DoubleValue
5.312

@<SCITEGIC>MOL_PROPERTY
Angle
SciTegic.value.DoubleValue
18.362

@<SCITEGIC>MOL_PROPERTY
Pdih
SciTegic.value.DoubleValue
125.814

@<SCITEGIC>MOL_PROPERTY
Idih
SciTegic.value.DoubleValue
0.011

@<SCITEGIC>MOL_PROPERTY
Tether
SciTegic.value.DoubleValue
0.000

@<TRIPOS>MOLECULE
CD_guest-s19_fast_vm2_rndm.mol2 : feprocess host+ligand conformer 189
         143         148           2
SMALL
USER_CHARGES
 
@<TRIPOS>ATOM
       1    C1      16.350236   15.334217   21.462682 C.3        1 MOL1         0.2972
       2    H1      15.281119   15.178132   21.268703 H          1 MOL1         0.0751
       3    O1      16.621590   16.721742   21.744308 O.3        1 MOL1        -0.3740
       4    C2      16.792149   14.489077   22.685432 C.3        1 MOL1         0.1003
       5    H2      16.581121   13.437829   22.450094 H          1 MOL1         0.0783
       6    O2      16.059466   14.864106   23.862170 O.3        1 MOL1        -0.5519
       7    H3      16.029944   15.848662   23.883811 H          1 MOL1         0.3769
       8    C3      18.311174   14.624439   22.936177 C.3        1 MOL1         0.1053
       9    H4      18.512985   15.654731   23.248689 H          1 MOL1         0.0783
      10    O3      18.710152   13.716575   23.967706 O.3        1 MOL1        -0.5519
      11    H5      18.013388   13.792480   24.657857 H          1 MOL1         0.3769
      12    C4      19.113492   14.355972   21.642358 C.3        1 MOL1         0.1018
      13    H6      19.063027   13.285553   21.402855 H          1 MOL1         0.0783
      14    C5      18.567010   15.175387   20.443284 C.3        1 MOL1         0.1043
      15    H7      18.739035   16.238341   20.650627 H          1 MOL1         0.0783
      16    O4      17.142506   14.939198   20.317043 O.3        1 MOL1        -0.3740
      17    C6      19.258086   14.866074   19.089076 C.3        1 MOL1         0.0138
      18    H8      20.112680   15.544966   18.974441 H          1 MOL1         0.0794
      19    H9      18.557423   15.097458   18.275783 H          1 MOL1         0.0794
      20    O5      19.710234   13.510648   18.978944 O.3        1 MOL1        -0.5486
      21    H10     20.479358   13.409349   19.585792 H          1 MOL1         0.3769
      22    C7      15.175750   20.417623   20.324350 C.3        1 MOL1         0.2972
      23    H11     15.081428   20.275161   19.241703 H          1 MOL1         0.0751
      24    O6      14.847746   21.804128   20.621071 O.3        1 MOL1        -0.3740
      25    C8      14.137790   19.492002   21.040222 C.3        1 MOL1         0.1003
      26    H12     13.461538   19.119620   20.260012 H          1 MOL1         0.0783
      27    O7      13.363831   20.179756   22.039619 O.3        1 MOL1        -0.5519
      28    H13     13.954714   20.877310   22.420585 H          1 MOL1         0.3769
      29    C9      14.788103   18.262995   21.718520 C.3        1 MOL1         0.1053
      30    H14     15.210144   18.595532   22.675793 H          1 MOL1         0.0783
      31    O8      13.775840   17.276885   21.948888 O.3        1 MOL1        -0.5519
      32    H15     13.082249   17.738932   22.468663 H          1 MOL1         0.3769
      33    C10     15.944281   17.663588   20.885716 C.3        1 MOL1         0.1018
      34    H16     15.526470   17.164906   20.002083 H          1 MOL1         0.0783
      35    C11     16.982189   18.737411   20.445733 C.3        1 MOL1         0.1043
      36    H17     17.883585   18.593717   21.053885 H          1 MOL1         0.0783
      37    O9      16.521349   20.081166   20.718247 O.3        1 MOL1        -0.3740
      38    C12     17.433034   18.624718   18.966445 C.3        1 MOL1         0.0138
      39    H18     18.064933   17.733860   18.857003 H          1 MOL1         0.0794
      40    H19     18.061047   19.494439   18.731859 H          1 MOL1         0.0794
      41    O10     16.335205   18.555421   18.048009 O.3        1 MOL1        -0.5486
      42    H20     16.094539   17.611193   17.932440 H          1 MOL1         0.3769
      43    C13     18.285389   23.828648   22.254684 C.3        1 MOL1         0.2972
      44    H21     18.803038   24.696275   22.684374 H          1 MOL1         0.0751
      45    O11     19.229157   22.767672   21.991447 O.3        1 MOL1        -0.3740
      46    C14     17.197661   23.352781   23.263457 C.3        1 MOL1         0.1003
      47    H22     16.577929   24.227087   23.500152 H          1 MOL1         0.0783
      48    O12     17.816721   22.887283   24.470977 O.3        1 MOL1        -0.5519
      49    H23     18.471868   22.207697   24.203918 H          1 MOL1         0.3769
      50    C15     16.262208   22.271210   22.666445 C.3        1 MOL1         0.1053
      51    H24     16.856659   21.357790   22.576211 H          1 MOL1         0.0783
      52    O13     15.148880   22.038580   23.534483 O.3        1 MOL1        -0.5519
      53    H25     15.480721   21.381098   24.206285 H          1 MOL1         0.3769
      54    C16     15.752774   22.739677   21.276326 C.3        1 MOL1         0.1018
      55    H26     15.178252   23.656047   21.462138 H          1 MOL1         0.0783
      56    C17     16.920148   23.134991   20.339900 C.3        1 MOL1         0.1043
      57    H27     17.560828   22.260215   20.187107 H          1 MOL1         0.0783
      58    O14     17.678407   24.187303   20.988843 O.3        1 MOL1        -0.3740
      59    C18     16.454126   23.637777   18.949573 C.3        1 MOL1         0.0138
      60    H28     16.124855   22.771579   18.359887 H          1 MOL1         0.0794
      61    H29     17.307793   24.079796   18.420835 H          1 MOL1         0.0794
      62    O15     15.387817   24.589519   19.041779 O.3        1 MOL1        -0.5486
      63    H30     14.608095   24.113041   19.402927 H          1 MOL1         0.3769
      64    C19     23.375092   22.534549   21.236304 C.3        1 MOL1         0.2972
      65    H31     24.396033   22.814598   20.947197 H          1 MOL1         0.0751
      66    O16     23.293657   21.137532   21.571929 O.3        1 MOL1        -0.3740
      67    C20     22.954721   23.348829   22.484316 C.3        1 MOL1         0.1003
      68    H32     23.068266   24.411551   22.233646 H          1 MOL1         0.0783
      69    O17     23.812336   23.029627   23.591465 O.3        1 MOL1        -0.5519
      70    H33     24.062316   22.080324   23.484652 H          1 MOL1         0.3769
      71    C21     21.472743   23.107815   22.862595 C.3        1 MOL1         0.1053
      72    H34     21.373688   22.086723   23.249326 H          1 MOL1         0.0783
      73    O18     21.103108   24.052083   23.871707 O.3        1 MOL1        -0.5519
      74    H35     21.798814   23.978133   24.561105 H          1 MOL1         0.3769
      75    C22     20.545988   23.249939   21.629038 C.3        1 MOL1         0.1018
      76    H36     20.520558   24.310181   21.343903 H          1 MOL1         0.0783
      77    C23     21.071688   22.435029   20.416293 C.3        1 MOL1         0.1043
      78    H37     21.016130   21.366570   20.660186 H          1 MOL1         0.0783
      79    O19     22.449983   22.805701   20.162753 O.3        1 MOL1        -0.3740
      80    C24     20.274861   22.658174   19.106486 C.3        1 MOL1         0.0138
      81    H38     19.387165   22.014992   19.122044 H          1 MOL1         0.0794
      82    H39     20.889847   22.326738   18.259681 H          1 MOL1         0.0794
      83    O20     19.888402   24.024729   18.918314 O.3        1 MOL1        -0.5486
      84    H40     19.215420   24.238529   19.605911 H          1 MOL1         0.3769
      85    C25     24.962427   17.444939   20.611727 C.3        1 MOL1         0.2972
      86    H41     25.569407   16.616157   20.224945 H          1 MOL1         0.0751
      87    O21     23.738115   16.979057   21.205816 O.3        1 MOL1        -0.3740
      88    C26     25.739496   18.267920   21.672243 C.3        1 MOL1         0.1003
      89    H42     26.630461   18.677165   21.178585 H          1 MOL1         0.0783
      90    O22     26.150142   17.444682   22.775509 O.3        1 MOL1        -0.5519
      91    H43     25.337640   17.005952   23.135465 H          1 MOL1         0.3769
      92    C27     24.883665   19.456944   22.175887 C.3        1 MOL1         0.1053
      93    H44     24.043369   19.047999   22.751261 H          1 MOL1         0.0783
      94    O23     25.679206   20.295861   23.020431 O.3        1 MOL1        -0.5519
      95    H45     26.135491   19.682353   23.637492 H          1 MOL1         0.3769
      96    C28     24.311114   20.290200   20.999585 C.3        1 MOL1         0.1018
      97    H46     25.136005   20.871329   20.567200 H          1 MOL1         0.0783
      98    C29     23.672508   19.397474   19.894691 C.3        1 MOL1         0.1043
      99    H47     22.754230   18.953706   20.299832 H          1 MOL1         0.0783
     100    O24     24.603678   18.344118   19.541854 O.3        1 MOL1        -0.3740
     101    C30     23.269813   20.128419   18.588963 C.3        1 MOL1         0.0138
     102    H48     22.242693   20.494640   18.699629 H          1 MOL1         0.0794
     103    H49     23.255670   19.396313   17.770539 H          1 MOL1         0.0794
     104    O25     24.136449   21.217637   18.255187 O.3        1 MOL1        -0.5486
     105    H50     23.791842   22.004125   18.737199 H          1 MOL1         0.3769
     106    C31     21.431318   13.761606   22.126159 C.3        1 MOL1         0.2972
     107    H51     20.955526   12.802960   22.370508 H          1 MOL1         0.0751
     108    O26     20.460048   14.796257   21.878174 O.3        1 MOL1        -0.3740
     109    C32     22.342078   14.216096   23.291014 C.3        1 MOL1         0.1003
     110    H52     23.148143   13.477599   23.391020 H          1 MOL1         0.0783
     111    O27     21.604517   14.283972   24.521876 O.3        1 MOL1        -0.5519
     112    H53     20.644490   14.287708   24.284317 H          1 MOL1         0.3769
     113    C33     22.980939   15.584542   22.968156 C.3        1 MOL1         0.1053
     114    H54     22.178603   16.332657   22.956462 H          1 MOL1         0.0783
     115    O28     23.931736   15.921727   23.983323 O.3        1 MOL1        -0.5519
     116    H55     23.460373   15.757454   24.830435 H          1 MOL1         0.3769
     117    C34     23.665900   15.592566   21.578215 C.3        1 MOL1         0.1018
     118    H56     24.659517   15.134670   21.672421 H          1 MOL1         0.0783
     119    C35     22.838834   14.880764   20.465625 C.3        1 MOL1         0.1043
     120    H57     22.030253   15.561858   20.172505 H          1 MOL1         0.0783
     121    O29     22.253448   13.642712   20.947653 O.3        1 MOL1        -0.3740
     122    C36     23.653296   14.573967   19.186401 C.3        1 MOL1         0.0138
     123    H58     23.868065   15.521355   18.673759 H          1 MOL1         0.0794
     124    H59     23.030911   13.972175   18.510476 H          1 MOL1         0.0794
     125    O30     24.878195   13.889964   19.477399 O.3        1 MOL1        -0.5486
     126    H60     25.300447   13.657281   18.621645 H          1 MOL1         0.3769
     127    C1      16.481768   18.649320   25.081467 C.2        1 MOL1         0.6173
     128    O1      16.195591   19.798180   24.800198 O.co2      1 MOL1        -0.6755
     129    O2      15.754228   17.916631   25.722826 O.co2      1 MOL1        -0.6755
     130    C2      17.752430   18.063356   24.579613 C.2        1 MOL1        -0.1504
     131    H1      17.950177   17.041748   24.891295 H          1 MOL1         0.0814
     132    C3      18.622869   18.713419   23.775283 C.2        1 MOL1        -0.1394
     133    H2      18.425893   19.734908   23.452838 H          1 MOL1         0.0817
     134    C4      19.888322   18.079431   23.237013 C.3        1 MOL1        -0.1849
     135    H3      19.675533   17.621560   22.264397 H          1 MOL1         0.0736
     136    H4      20.217780   17.264897   23.895785 H          1 MOL1         0.0736
     137    C5      21.034541   19.094294   23.065122 C.3        1 MOL1        -0.1866
     138    H5      21.834401   18.627629   22.478809 H          1 MOL1         0.0738
     139    H6      20.683119   19.957092   22.485965 H          1 MOL1         0.0738
     140    C6      21.608177   19.560553   24.418939 C.3        1 MOL1        -0.2879
     141    H7      21.974540   18.705817   25.002018 H          1 MOL1         0.0750
     142    H8      22.448710   20.249469   24.269143 H          1 MOL1         0.0750
     143    H9      20.844083   20.078497   25.012789 H          1 MOL1         0.0750
@<TRIPOS>BOND
    1     1     2    1
    2     1     3    1
    3     1     4    1
    4     4     5    1
    5     4     6    1
    6     6     7    1
    7     4     8    1
    8     8     9    1
    9     8    10    1
   10    10    11    1
   11     8    12    1
   12    12    13    1
   13    12    14    1
   14    14    15    1
   15     1    16    1
   16    14    16    1
   17    14    17    1
   18    17    18    1
   19    17    19    1
   20    17    20    1
   21    20    21    1
   22    22    23    1
   23    22    24    1
   24    22    25    1
   25    25    26    1
   26    25    27    1
   27    27    28    1
   28    25    29    1
   29    29    30    1
   30    29    31    1
   31    31    32    1
   32     3    33    1
   33    29    33    1
   34    33    34    1
   35    33    35    1
   36    35    36    1
   37    22    37    1
   38    35    37    1
   39    35    38    1
   40    38    39    1
   41    38    40    1
   42    38    41    1
   43    41    42    1
   44    43    44    1
   45    43    45    1
   46    43    46    1
   47    46    47    1
   48    46    48    1
   49    48    49    1
   50    46    50    1
   51    50    51    1
   52    50    52    1
   53    52    53    1
   54    24    54    1
   55    50    54    1
   56    54    55    1
   57    54    56    1
   58    56    57    1
   59    43    58    1
   60    56    58    1
   61    56    59    1
   62    59    60    1
   63    59    61    1
   64    59    62    1
   65    62    63    1
   66    64    65    1
   67    64    66    1
   68    64    67    1
   69    67    68    1
   70    67    69    1
   71    69    70    1
   72    67    71    1
   73    71    72    1
   74    71    73    1
   75    73    74    1
   76    45    75    1
   77    71    75    1
   78    75    76    1
   79    75    77    1
   80    77    78    1
   81    64    79    1
   82    77    79    1
   83    77    80    1
   84    80    81    1
   85    80    82    1
   86    80    83    1
   87    83    84    1
   88    85    86    1
   89    85    87    1
   90    85    88    1
   91    88    89    1
   92    88    90    1
   93    90    91    1
   94    88    92    1
   95    92    93    1
   96    92    94    1
   97    94    95    1
   98    66    96    1
   99    92    96    1
  100    96    97    1
  101    96    98    1
  102    98    99    1
  103    85   100    1
  104    98   100    1
  105    98   101    1
  106   101   102    1
  107   101   103    1
  108   101   104    1
  109   104   105    1
  110   106   107    1
  111    12   108    1
  112   106   108    1
  113   106   109    1
  114   109   110    1
  115   109   111    1
  116   111   112    1
  117   109   113    1
  118   113   114    1
  119   113   115    1
  120   115   116    1
  121    87   117    1
  122   113   117    1
  123   117   118    1
  124   117   119    1
  125   119   120    1
  126   106   121    1
  127   119   121    1
  128   119   122    1
  129   122   123    1
  130   122   124    1
  131   122   125    1
  132   125   126    1
  133   127   128    1
  134   127   129    2
  135   127   130    1
  136   130   131    1
  137   130   132    2
  138   132   133    1
  139   132   134    1
  140   134   135    1
  141   134   136    1
  142   134   137    1
  143   137   138    1
  144   137   139    1
  145   137   140    1
  146   140   141    1
  147   140   142    1
  148   140   143    1
@<TRIPOS>SUBSTRUCTURE
       1 MOL1            1 RESIDUE      1      MOL     
       2 MOL1          143 RESIDUE      1      MOL     
@<SCITEGIC>MOL_PROPERTY
feprocess Rank
SciTegic.value.IntegerValue
189

@<SCITEGIC>MOL_PROPERTY
Conf_Id
SciTegic.value.IntegerValue
794

@<SCITEGIC>MOL_PROPERTY
Probability
SciTegic.value.DoubleValue
0.00

@<SCITEGIC>MOL_PROPERTY
G
SciTegic.value.DoubleValue
507.371

@<SCITEGIC>MOL_PROPERTY
E
SciTegic.value.DoubleValue
327.078

@<SCITEGIC>MOL_PROPERTY
-TS
SciTegic.value.DoubleValue
180.293

@<SCITEGIC>MOL_PROPERTY
U+W
SciTegic.value.DoubleValue
200.990

@<SCITEGIC>MOL_PROPERTY
U
SciTegic.value.DoubleValue
281.527

@<SCITEGIC>MOL_PROPERTY
W
SciTegic.value.DoubleValue
-80.537

@<SCITEGIC>MOL_PROPERTY
W(PB)
SciTegic.value.DoubleValue
-86.447

@<SCITEGIC>MOL_PROPERTY
W(SA)
SciTegic.value.DoubleValue
5.910

@<SCITEGIC>MOL_PROPERTY
Valence
SciTegic.value.DoubleValue
153.156

@<SCITEGIC>MOL_PROPERTY
Coulomb
SciTegic.value.DoubleValue
151.844

@<SCITEGIC>MOL_PROPERTY
VdW
SciTegic.value.DoubleValue
-23.473

@<SCITEGIC>MOL_PROPERTY
VdW6
SciTegic.value.DoubleValue
-179.822

@<SCITEGIC>MOL_PROPERTY
VdW12
SciTegic.value.DoubleValue
156.348

@<SCITEGIC>MOL_PROPERTY
Bond
SciTegic.value.DoubleValue
5.174

@<SCITEGIC>MOL_PROPERTY
Angle
SciTegic.value.DoubleValue
18.588

@<SCITEGIC>MOL_PROPERTY
Pdih
SciTegic.value.DoubleValue
129.386

@<SCITEGIC>MOL_PROPERTY
Idih
SciTegic.value.DoubleValue
0.008

@<SCITEGIC>MOL_PROPERTY
Tether
SciTegic.value.DoubleValue
0.000

@<TRIPOS>MOLECULE
CD_guest-s19_fast_vm2_rndm.mol2 : feprocess host+ligand conformer 190
         143         148           2
SMALL
USER_CHARGES
 
@<TRIPOS>ATOM
       1    C1      16.185870   15.015904   21.515072 C.3        1 MOL1         0.2972
       2    H1      15.090434   15.044529   21.450019 H          1 MOL1         0.0751
       3    O1      16.729270   16.355270   21.530494 O.3        1 MOL1        -0.3740
       4    C2      16.589262   14.227862   22.790837 C.3        1 MOL1         0.1003
       5    H2      16.192575   13.212997   22.658649 H          1 MOL1         0.0783
       6    O2      15.985561   14.770094   23.974023 O.3        1 MOL1        -0.5519
       7    H3      16.450527   15.618914   24.208555 H          1 MOL1         0.3769
       8    C3      18.127568   14.099076   22.905685 C.3        1 MOL1         0.1053
       9    H4      18.546719   15.108227   22.986598 H          1 MOL1         0.0783
      10    O3      18.457254   13.324601   24.062234 O.3        1 MOL1        -0.5519
      11    H5      18.207002   13.899702   24.821325 H          1 MOL1         0.3769
      12    C4      18.652252   13.419175   21.612725 C.3        1 MOL1         0.1018
      13    H6      18.181840   12.428477   21.576345 H          1 MOL1         0.0783
      14    C5      18.188707   14.202390   20.350904 C.3        1 MOL1         0.1043
      15    H7      18.635740   15.202621   20.388365 H          1 MOL1         0.0783
      16    O4      16.741145   14.329109   20.367885 O.3        1 MOL1        -0.3740
      17    C6      18.599703   13.537464   19.012634 C.3        1 MOL1         0.0138
      18    H8      19.676433   13.684745   18.857969 H          1 MOL1         0.0794
      19    H9      18.085448   14.050760   18.189540 H          1 MOL1         0.0794
      20    O5      18.296193   12.138195   18.983734 O.3        1 MOL1        -0.5486
      21    H10     18.881387   11.696025   19.636526 H          1 MOL1         0.3769
      22    C7      15.538218   20.147151   20.093696 C.3        1 MOL1         0.2972
      23    H11     15.022899   20.934566   19.529099 H          1 MOL1         0.0751
      24    O6      16.666600   20.674330   20.818634 O.3        1 MOL1        -0.3740
      25    C8      14.567857   19.456356   21.089539 C.3        1 MOL1         0.1003
      26    H12     13.748073   19.026604   20.499926 H          1 MOL1         0.0783
      27    O7      14.020628   20.411227   22.013281 O.3        1 MOL1        -0.5519
      28    H13     14.770393   20.746157   22.565371 H          1 MOL1         0.3769
      29    C9      15.284429   18.291344   21.822737 C.3        1 MOL1         0.1053
      30    H14     16.082246   18.720808   22.442966 H          1 MOL1         0.0783
      31    O8      14.360978   17.572115   22.646642 O.3        1 MOL1        -0.5519
      32    H15     14.876067   17.350872   23.467197 H          1 MOL1         0.3769
      33    C10     15.931208   17.319827   20.801280 C.3        1 MOL1         0.1018
      34    H16     15.119988   16.829287   20.247190 H          1 MOL1         0.0783
      35    C11     16.823394   18.079394   19.779701 C.3        1 MOL1         0.1043
      36    H17     17.687208   18.502799   20.309818 H          1 MOL1         0.0783
      37    O9      16.039180   19.144073   19.186082 O.3        1 MOL1        -0.3740
      38    C12     17.365458   17.211497   18.616073 C.3        1 MOL1         0.0138
      39    H18     18.274597   16.701181   18.949352 H          1 MOL1         0.0794
      40    H19     17.665800   17.878459   17.797171 H          1 MOL1         0.0794
      41    O10     16.413362   16.251436   18.141007 O.3        1 MOL1        -0.5486
      42    H20     16.351272   15.542575   18.823333 H          1 MOL1         0.3769
      43    C13     18.547463   24.171581   21.883177 C.3        1 MOL1         0.2972
      44    H21     18.862388   25.191450   22.139719 H          1 MOL1         0.0751
      45    O11     19.662954   23.267016   21.825641 O.3        1 MOL1        -0.3740
      46    C14     17.571011   23.632040   22.952916 C.3        1 MOL1         0.1003
      47    H22     16.678907   24.271803   22.945728 H          1 MOL1         0.0783
      48    O12     18.182333   23.677092   24.252140 O.3        1 MOL1        -0.5519
      49    H23     19.157093   23.625627   24.107732 H          1 MOL1         0.3769
      50    C15     17.133746   22.188731   22.611276 C.3        1 MOL1         0.1053
      51    H24     18.008600   21.532480   22.714934 H          1 MOL1         0.0783
      52    O13     16.114509   21.781239   23.529017 O.3        1 MOL1        -0.5519
      53    H25     16.457042   22.033077   24.415347 H          1 MOL1         0.3769
      54    C16     16.614478   22.075563   21.154965 C.3        1 MOL1         0.1018
      55    H26     15.591198   22.472567   21.117461 H          1 MOL1         0.0783
      56    C17     17.513637   22.818560   20.124391 C.3        1 MOL1         0.1043
      57    H27     18.422102   22.217874   19.996876 H          1 MOL1         0.0783
      58    O14     17.881621   24.138249   20.604693 O.3        1 MOL1        -0.3740
      59    C18     16.870700   22.972928   18.725248 C.3        1 MOL1         0.0138
      60    H28     16.838418   21.986121   18.244003 H          1 MOL1         0.0794
      61    H29     17.518013   23.612875   18.110521 H          1 MOL1         0.0794
      62    O15     15.549968   23.523476   18.796712 O.3        1 MOL1        -0.5486
      63    H30     15.240347   23.677202   17.877423 H          1 MOL1         0.3769
      64    C19     23.752799   22.981333   21.479366 C.3        1 MOL1         0.2972
      65    H31     24.828626   23.133807   21.322618 H          1 MOL1         0.0751
      66    O16     23.451107   21.603883   21.776802 O.3        1 MOL1        -0.3740
      67    C20     23.266397   23.840821   22.671633 C.3        1 MOL1         0.1003
      68    H32     23.448541   24.894077   22.421559 H          1 MOL1         0.0783
      69    O17     23.995354   23.498976   23.860630 O.3        1 MOL1        -0.5519
      70    H33     24.295734   22.566281   23.747418 H          1 MOL1         0.3769
      71    C21     21.747680   23.653883   22.895142 C.3        1 MOL1         0.1053
      72    H34     21.578308   22.624593   23.232207 H          1 MOL1         0.0783
      73    O18     21.285658   24.563520   23.898076 O.3        1 MOL1        -0.5519
      74    H35     21.941910   24.493550   24.626748 H          1 MOL1         0.3769
      75    C22     20.949886   23.855969   21.584919 C.3        1 MOL1         0.1018
      76    H36     20.890286   24.929630   21.363315 H          1 MOL1         0.0783
      77    C23     21.572935   23.099242   20.378957 C.3        1 MOL1         0.1043
      78    H37     21.412789   22.029655   20.556532 H          1 MOL1         0.0783
      79    O19     22.997720   23.362521   20.308798 O.3        1 MOL1        -0.3740
      80    C24     20.941426   23.424359   18.998402 C.3        1 MOL1         0.0138
      81    H38     20.164671   22.680466   18.784451 H          1 MOL1         0.0794
      82    H39     21.710071   23.302432   18.223417 H          1 MOL1         0.0794
      83    O20     20.378710   24.739528   18.923560 O.3        1 MOL1        -0.5486
      84    H40     19.544704   24.729725   19.448883 H          1 MOL1         0.3769
      85    C25     24.952138   17.737440   21.362846 C.3        1 MOL1         0.2972
      86    H41     25.559333   16.882961   21.044631 H          1 MOL1         0.0751
      87    O21     23.847424   17.305301   22.198547 O.3        1 MOL1        -0.3740
      88    C26     25.842125   18.722874   22.165190 C.3        1 MOL1         0.1003
      89    H42     26.689069   18.998624   21.523423 H          1 MOL1         0.0783
      90    O22     26.334247   18.098354   23.359330 O.3        1 MOL1        -0.5519
      91    H43     25.562350   17.643785   23.763679 H          1 MOL1         0.3769
      92    C27     25.072473   20.015299   22.521552 C.3        1 MOL1         0.1053
      93    H44     24.296457   19.748895   23.247553 H          1 MOL1         0.0783
      94    O23     25.966720   20.968190   23.104859 O.3        1 MOL1        -0.5519
      95    H45     26.489849   20.462567   23.765659 H          1 MOL1         0.3769
      96    C28     24.383458   20.628248   21.278844 C.3        1 MOL1         0.1018
      97    H46     25.148596   21.075409   20.630433 H          1 MOL1         0.0783
      98    C29     23.582276   19.564734   20.479604 C.3        1 MOL1         0.1043
      99    H47     22.744914   19.241066   21.105660 H          1 MOL1         0.0783
     100    O24     24.436678   18.431267   20.204525 O.3        1 MOL1        -0.3740
     101    C30     22.991230   20.053921   19.130875 C.3        1 MOL1         0.0138
     102    H48     21.969662   20.412730   19.301458 H          1 MOL1         0.0794
     103    H49     22.908410   19.193483   18.453518 H          1 MOL1         0.0794
     104    O25     23.770327   21.083300   18.510502 O.3        1 MOL1        -0.5486
     105    H50     23.648044   21.904680   19.041385 H          1 MOL1         0.3769
     106    C31     21.003198   14.327561   21.448425 C.3        1 MOL1         0.2972
     107    H51     20.804605   14.828057   20.494167 H          1 MOL1         0.0751
     108    O26     20.094803   13.211318   21.610889 O.3        1 MOL1        -0.3740
     109    C32     22.463591   13.799342   21.451246 C.3        1 MOL1         0.1003
     110    H52     22.677719   13.472296   20.425254 H          1 MOL1         0.0783
     111    O27     22.619940   12.688677   22.346982 O.3        1 MOL1        -0.5519
     112    H53     21.718987   12.297804   22.427873 H          1 MOL1         0.3769
     113    C33     23.487338   14.900942   21.845628 C.3        1 MOL1         0.1053
     114    H54     23.682202   14.808268   22.923186 H          1 MOL1         0.0783
     115    O28     24.697327   14.663435   21.119168 O.3        1 MOL1        -0.5519
     116    H55     24.990738   13.760951   21.370978 H          1 MOL1         0.3769
     117    C34     22.936340   16.338635   21.612513 C.3        1 MOL1         0.1018
     118    H56     22.836272   16.499008   20.532586 H          1 MOL1         0.0783
     119    C35     21.546110   16.529002   22.309142 C.3        1 MOL1         0.1043
     120    H57     21.726751   16.953115   23.304705 H          1 MOL1         0.0783
     121    O29     20.873429   15.266557   22.521464 O.3        1 MOL1        -0.3740
     122    C36     20.563511   17.486082   21.580740 C.3        1 MOL1         0.0138
     123    H58     20.858477   18.522926   21.781163 H          1 MOL1         0.0794
     124    H59     19.567378   17.355772   22.027046 H          1 MOL1         0.0794
     125    O30     20.493127   17.255126   20.166767 O.3        1 MOL1        -0.5486
     126    H60     21.291467   17.641659   19.753724 H          1 MOL1         0.3769
     127    C1      17.505508   17.478083   24.801639 C.2        1 MOL1         0.6173
     128    O1      18.107912   16.452218   25.053927 O.co2      1 MOL1        -0.6755
     129    O2      16.294894   17.505513   24.700782 O.co2      1 MOL1        -0.6755
     130    C2      18.253921   18.734831   24.530668 C.2        1 MOL1        -0.1504
     131    H1      17.650429   19.603317   24.282555 H          1 MOL1         0.0814
     132    C3      19.600774   18.826930   24.580478 C.2        1 MOL1        -0.1394
     133    H2      20.199369   17.952063   24.831386 H          1 MOL1         0.0817
     134    C4      20.366215   20.103922   24.299763 C.3        1 MOL1        -0.1849
     135    H3      19.966565   20.924934   24.910222 H          1 MOL1         0.0736
     136    H4      20.214473   20.396341   23.252482 H          1 MOL1         0.0736
     137    C5      21.879628   19.949260   24.566511 C.3        1 MOL1        -0.1866
     138    H5      22.270266   19.104628   23.986140 H          1 MOL1         0.0738
     139    H6      22.404989   20.843715   24.212730 H          1 MOL1         0.0738
     140    C6      22.207740   19.749584   26.060545 C.3        1 MOL1        -0.2879
     141    H7      21.747836   18.833473   26.452209 H          1 MOL1         0.0750
     142    H8      23.292435   19.672648   26.209273 H          1 MOL1         0.0750
     143    H9      21.843547   20.596478   26.656366 H          1 MOL1         0.0750
@<TRIPOS>BOND
    1     1     2    1
    2     1     3    1
    3     1     4    1
    4     4     5    1
    5     4     6    1
    6     6     7    1
    7     4     8    1
    8     8     9    1
    9     8    10    1
   10    10    11    1
   11     8    12    1
   12    12    13    1
   13    12    14    1
   14    14    15    1
   15     1    16    1
   16    14    16    1
   17    14    17    1
   18    17    18    1
   19    17    19    1
   20    17    20    1
   21    20    21    1
   22    22    23    1
   23    22    24    1
   24    22    25    1
   25    25    26    1
   26    25    27    1
   27    27    28    1
   28    25    29    1
   29    29    30    1
   30    29    31    1
   31    31    32    1
   32     3    33    1
   33    29    33    1
   34    33    34    1
   35    33    35    1
   36    35    36    1
   37    22    37    1
   38    35    37    1
   39    35    38    1
   40    38    39    1
   41    38    40    1
   42    38    41    1
   43    41    42    1
   44    43    44    1
   45    43    45    1
   46    43    46    1
   47    46    47    1
   48    46    48    1
   49    48    49    1
   50    46    50    1
   51    50    51    1
   52    50    52    1
   53    52    53    1
   54    24    54    1
   55    50    54    1
   56    54    55    1
   57    54    56    1
   58    56    57    1
   59    43    58    1
   60    56    58    1
   61    56    59    1
   62    59    60    1
   63    59    61    1
   64    59    62    1
   65    62    63    1
   66    64    65    1
   67    64    66    1
   68    64    67    1
   69    67    68    1
   70    67    69    1
   71    69    70    1
   72    67    71    1
   73    71    72    1
   74    71    73    1
   75    73    74    1
   76    45    75    1
   77    71    75    1
   78    75    76    1
   79    75    77    1
   80    77    78    1
   81    64    79    1
   82    77    79    1
   83    77    80    1
   84    80    81    1
   85    80    82    1
   86    80    83    1
   87    83    84    1
   88    85    86    1
   89    85    87    1
   90    85    88    1
   91    88    89    1
   92    88    90    1
   93    90    91    1
   94    88    92    1
   95    92    93    1
   96    92    94    1
   97    94    95    1
   98    66    96    1
   99    92    96    1
  100    96    97    1
  101    96    98    1
  102    98    99    1
  103    85   100    1
  104    98   100    1
  105    98   101    1
  106   101   102    1
  107   101   103    1
  108   101   104    1
  109   104   105    1
  110   106   107    1
  111    12   108    1
  112   106   108    1
  113   106   109    1
  114   109   110    1
  115   109   111    1
  116   111   112    1
  117   109   113    1
  118   113   114    1
  119   113   115    1
  120   115   116    1
  121    87   117    1
  122   113   117    1
  123   117   118    1
  124   117   119    1
  125   119   120    1
  126   106   121    1
  127   119   121    1
  128   119   122    1
  129   122   123    1
  130   122   124    1
  131   122   125    1
  132   125   126    1
  133   127   128    1
  134   127   129    2
  135   127   130    1
  136   130   131    1
  137   130   132    2
  138   132   133    1
  139   132   134    1
  140   134   135    1
  141   134   136    1
  142   134   137    1
  143   137   138    1
  144   137   139    1
  145   137   140    1
  146   140   141    1
  147   140   142    1
  148   140   143    1
@<TRIPOS>SUBSTRUCTURE
       1 MOL1            1 RESIDUE      1      MOL     
       2 MOL1          143 RESIDUE      1      MOL     
@<SCITEGIC>MOL_PROPERTY
feprocess Rank
SciTegic.value.IntegerValue
190

@<SCITEGIC>MOL_PROPERTY
Conf_Id
SciTegic.value.IntegerValue
344

@<SCITEGIC>MOL_PROPERTY
Probability
SciTegic.value.DoubleValue
0.00

@<SCITEGIC>MOL_PROPERTY
G
SciTegic.value.DoubleValue
507.402

@<SCITEGIC>MOL_PROPERTY
E
SciTegic.value.DoubleValue
325.053

@<SCITEGIC>MOL_PROPERTY
-TS
SciTegic.value.DoubleValue
182.350

@<SCITEGIC>MOL_PROPERTY
U+W
SciTegic.value.DoubleValue
198.964

@<SCITEGIC>MOL_PROPERTY
U
SciTegic.value.DoubleValue
278.333

@<SCITEGIC>MOL_PROPERTY
W
SciTegic.value.DoubleValue
-79.369

@<SCITEGIC>MOL_PROPERTY
W(PB)
SciTegic.value.DoubleValue
-85.408

@<SCITEGIC>MOL_PROPERTY
W(SA)
SciTegic.value.DoubleValue
6.039

@<SCITEGIC>MOL_PROPERTY
Valence
SciTegic.value.DoubleValue
149.172

@<SCITEGIC>MOL_PROPERTY
Coulomb
SciTegic.value.DoubleValue
150.569

@<SCITEGIC>MOL_PROPERTY
VdW
SciTegic.value.DoubleValue
-21.407

@<SCITEGIC>MOL_PROPERTY
VdW6
SciTegic.value.DoubleValue
-180.531

@<SCITEGIC>MOL_PROPERTY
VdW12
SciTegic.value.DoubleValue
159.124

@<SCITEGIC>MOL_PROPERTY
Bond
SciTegic.value.DoubleValue
5.412

@<SCITEGIC>MOL_PROPERTY
Angle
SciTegic.value.DoubleValue
17.052

@<SCITEGIC>MOL_PROPERTY
Pdih
SciTegic.value.DoubleValue
126.700

@<SCITEGIC>MOL_PROPERTY
Idih
SciTegic.value.DoubleValue
0.008

@<SCITEGIC>MOL_PROPERTY
Tether
SciTegic.value.DoubleValue
0.000

@<TRIPOS>MOLECULE
CD_guest-s19_fast_vm2_rndm.mol2 : feprocess host+ligand conformer 191
         143         148           2
SMALL
USER_CHARGES
 
@<TRIPOS>ATOM
       1    C1      16.127716   15.086052   21.632173 C.3        1 MOL1         0.2972
       2    H1      15.061088   14.838299   21.556531 H          1 MOL1         0.0751
       3    O1      16.331729   16.504398   21.768459 O.3        1 MOL1        -0.3740
       4    C2      16.734267   14.410797   22.887923 C.3        1 MOL1         0.1003
       5    H2      16.591217   13.327225   22.785435 H          1 MOL1         0.0783
       6    O2      16.062542   14.870029   24.071605 O.3        1 MOL1        -0.5519
       7    H3      15.740865   15.782911   23.875952 H          1 MOL1         0.3769
       8    C3      18.253585   14.687816   22.985670 C.3        1 MOL1         0.1053
       9    H4      18.399035   15.761051   23.172583 H          1 MOL1         0.0783
      10    O3      18.811568   13.928617   24.062763 O.3        1 MOL1        -0.5519
      11    H5      18.194185   14.065124   24.815807 H          1 MOL1         0.3769
      12    C4      18.959595   14.326262   21.657465 C.3        1 MOL1         0.1018
      13    H6      18.957324   13.234667   21.538867 H          1 MOL1         0.0783
      14    C5      18.257579   14.977275   20.436193 C.3        1 MOL1         0.1043
      15    H7      18.371402   16.065352   20.525376 H          1 MOL1         0.0783
      16    O4      16.847479   14.637051   20.461488 O.3        1 MOL1        -0.3740
      17    C6      18.846214   14.572779   19.058731 C.3        1 MOL1         0.0138
      18    H8      19.646691   15.277976   18.802239 H          1 MOL1         0.0794
      19    H9      18.065182   14.688735   18.295428 H          1 MOL1         0.0794
      20    O5      19.363050   13.237210   19.032719 O.3        1 MOL1        -0.5486
      21    H10     20.235562   13.257355   19.490079 H          1 MOL1         0.3769
      22    C7      14.679755   20.206157   20.911972 C.3        1 MOL1         0.2972
      23    H11     14.067228   21.053485   20.578581 H          1 MOL1         0.0751
      24    O6      15.923837   20.651365   21.475865 O.3        1 MOL1        -0.3740
      25    C8      13.947152   19.399771   22.013101 C.3        1 MOL1         0.1003
      26    H12     13.021776   19.007150   21.572205 H          1 MOL1         0.0783
      27    O7      13.616436   20.233719   23.138063 O.3        1 MOL1        -0.5519
      28    H13     14.421560   20.764609   23.386983 H          1 MOL1         0.3769
      29    C9      14.809625   18.196448   22.465450 C.3        1 MOL1         0.1053
      30    H14     15.701354   18.588083   22.970530 H          1 MOL1         0.0783
      31    O8      14.063186   17.378960   23.372694 O.3        1 MOL1        -0.5519
      32    H15     13.639131   18.010332   23.995680 H          1 MOL1         0.3769
      33    C10     15.284616   17.349735   21.258953 C.3        1 MOL1         0.1018
      34    H16     14.430100   16.775337   20.877855 H          1 MOL1         0.0783
      35    C11     15.879776   18.224511   20.118566 C.3        1 MOL1         0.1043
      36    H17     16.828596   18.640323   20.478139 H          1 MOL1         0.0783
      37    O9      14.966159   19.308680   19.814796 O.3        1 MOL1        -0.3740
      38    C12     16.195332   17.471603   18.799981 C.3        1 MOL1         0.0138
      39    H18     17.227657   17.104901   18.844954 H          1 MOL1         0.0794
      40    H19     16.153110   18.189513   17.969965 H          1 MOL1         0.0794
      41    O10     15.308984   16.376788   18.544089 O.3        1 MOL1        -0.5486
      42    H20     15.620028   15.623226   19.097543 H          1 MOL1         0.3769
      43    C13     18.761962   23.589094   21.203568 C.3        1 MOL1         0.2972
      44    H21     19.091085   23.538814   20.161736 H          1 MOL1         0.0751
      45    O11     19.619374   24.515392   21.918492 O.3        1 MOL1        -0.3740
      46    C14     17.295787   24.100570   21.251810 C.3        1 MOL1         0.1003
      47    H22     17.195684   24.818721   20.428174 H          1 MOL1         0.0783
      48    O12     16.999493   24.776874   22.486131 O.3        1 MOL1        -0.5519
      49    H23     17.233108   24.139750   23.215593 H          1 MOL1         0.3769
      50    C15     16.223218   22.989465   21.056351 C.3        1 MOL1         0.1053
      51    H24     15.711948   22.891377   22.022740 H          1 MOL1         0.0783
      52    O13     15.247565   23.418108   20.099496 O.3        1 MOL1        -0.5519
      53    H25     14.842276   24.233324   20.465946 H          1 MOL1         0.3769
      54    C16     16.726013   21.559633   20.697256 C.3        1 MOL1         0.1018
      55    H26     16.585008   21.376259   19.624497 H          1 MOL1         0.0783
      56    C17     18.191433   21.218175   21.085971 C.3        1 MOL1         0.1043
      57    H27     18.156700   20.376471   21.790717 H          1 MOL1         0.0783
      58    O14     18.834027   22.289732   21.790752 O.3        1 MOL1        -0.3740
      59    C18     19.081807   20.732449   19.912371 C.3        1 MOL1         0.0138
      60    H28     18.738167   19.738316   19.598139 H          1 MOL1         0.0794
      61    H29     20.102399   20.607843   20.294817 H          1 MOL1         0.0794
      62    O15     19.086367   21.620116   18.787586 O.3        1 MOL1        -0.5486
      63    H30     18.261524   21.476841   18.277454 H          1 MOL1         0.3769
      64    C19     23.404659   22.534079   22.460381 C.3        1 MOL1         0.2972
      65    H31     24.469863   22.485530   22.720105 H          1 MOL1         0.0751
      66    O16     22.962800   21.273885   21.915405 O.3        1 MOL1        -0.3740
      67    C20     22.585096   22.860221   23.743510 C.3        1 MOL1         0.1003
      68    H32     23.009479   23.771892   24.182862 H          1 MOL1         0.0783
      69    O17     22.717660   21.780049   24.679905 O.3        1 MOL1        -0.5519
      70    H33     22.449759   20.969105   24.196951 H          1 MOL1         0.3769
      71    C21     21.092801   23.136063   23.426656 C.3        1 MOL1         0.1053
      72    H34     20.671890   22.176554   23.117615 H          1 MOL1         0.0783
      73    O18     20.404893   23.624374   24.585541 O.3        1 MOL1        -0.5519
      74    H35     19.438185   23.436610   24.444897 H          1 MOL1         0.3769
      75    C22     20.989323   24.176978   22.276941 C.3        1 MOL1         0.1018
      76    H36     21.455814   25.093321   22.660255 H          1 MOL1         0.0783
      77    C23     21.805707   23.732964   21.036306 C.3        1 MOL1         0.1043
      78    H37     21.392839   22.785160   20.672786 H          1 MOL1         0.0783
      79    O19     23.183110   23.543206   21.446032 O.3        1 MOL1        -0.3740
      80    C24     21.784186   24.751713   19.867829 C.3        1 MOL1         0.0138
      81    H38     20.818930   24.677272   19.350475 H          1 MOL1         0.0794
      82    H39     22.557685   24.475095   19.139798 H          1 MOL1         0.0794
      83    O20     21.988152   26.097381   20.313299 O.3        1 MOL1        -0.5486
      84    H40     21.216275   26.338106   20.871705 H          1 MOL1         0.3769
      85    C25     24.509567   17.892563   20.076961 C.3        1 MOL1         0.2972
      86    H41     25.040418   17.147532   19.470412 H          1 MOL1         0.0751
      87    O21     23.340243   17.328314   20.704549 O.3        1 MOL1        -0.3740
      88    C26     25.437657   18.505745   21.156825 C.3        1 MOL1         0.1003
      89    H42     26.240571   19.032627   20.624793 H          1 MOL1         0.0783
      90    O22     26.026629   17.500998   21.995623 O.3        1 MOL1        -0.5519
      91    H43     25.284630   17.052211   22.474202 H          1 MOL1         0.3769
      92    C27     24.670789   19.549506   22.005746 C.3        1 MOL1         0.1053
      93    H44     23.912688   19.021803   22.599668 H          1 MOL1         0.0783
      94    O23     25.601780   20.201556   22.875059 O.3        1 MOL1        -0.5519
      95    H45     26.122458   19.477747   23.287625 H          1 MOL1         0.3769
      96    C28     23.953322   20.597011   21.108394 C.3        1 MOL1         0.1018
      97    H46     24.715078   21.295857   20.740000 H          1 MOL1         0.0783
      98    C29     23.219910   19.968052   19.886282 C.3        1 MOL1         0.1043
      99    H47     22.310038   19.470610   20.245032 H          1 MOL1         0.0783
     100    O24     24.073838   18.987919   19.244741 O.3        1 MOL1        -0.3740
     101    C30     22.782702   20.995832   18.809276 C.3        1 MOL1         0.0138
     102    H48     21.818173   21.425527   19.099467 H          1 MOL1         0.0794
     103    H49     22.613494   20.461217   17.865092 H          1 MOL1         0.0794
     104    O25     23.736959   22.047307   18.612995 O.3        1 MOL1        -0.5486
     105    H50     23.755554   22.585660   19.436160 H          1 MOL1         0.3769
     106    C31     21.362087   13.904195   21.771676 C.3        1 MOL1         0.2972
     107    H51     21.003738   12.897510   22.022407 H          1 MOL1         0.0751
     108    O26     20.289067   14.864525   21.731431 O.3        1 MOL1        -0.3740
     109    C32     22.385645   14.379244   22.827244 C.3        1 MOL1         0.1003
     110    H52     23.250875   13.705054   22.782690 H          1 MOL1         0.0783
     111    O27     21.813223   14.334206   24.144286 O.3        1 MOL1        -0.5519
     112    H53     20.834460   14.434679   24.038683 H          1 MOL1         0.3769
     113    C33     22.870141   15.807797   22.496061 C.3        1 MOL1         0.1053
     114    H54     22.014904   16.482704   22.615742 H          1 MOL1         0.0783
     115    O28     23.903712   16.174710   23.414449 O.3        1 MOL1        -0.5519
     116    H55     23.551252   15.925125   24.298050 H          1 MOL1         0.3769
     117    C34     23.372824   15.924709   21.032569 C.3        1 MOL1         0.1018
     118    H56     24.386605   15.507316   20.971947 H          1 MOL1         0.0783
     119    C35     22.438471   15.216932   20.007035 C.3        1 MOL1         0.1043
     120    H57     21.551897   15.850969   19.879748 H          1 MOL1         0.0783
     121    O29     22.016328   13.912889   20.486513 O.3        1 MOL1        -0.3740
     122    C36     23.075057   15.043147   18.607640 C.3        1 MOL1         0.0138
     123    H58     23.155716   16.031996   18.136279 H          1 MOL1         0.0794
     124    H59     22.398559   14.440163   17.987054 H          1 MOL1         0.0794
     125    O30     24.368435   14.430301   18.675339 O.3        1 MOL1        -0.5486
     126    H60     24.675273   14.278612   17.754753 H          1 MOL1         0.3769
     127    C1      16.842175   21.867810   24.476263 C.2        1 MOL1         0.6173
     128    O1      17.600230   22.824159   24.469968 O.co2      1 MOL1        -0.6755
     129    O2      15.638614   21.964328   24.321656 O.co2      1 MOL1        -0.6755
     130    C2      17.378132   20.489361   24.635013 C.2        1 MOL1        -0.1504
     131    H1      16.635426   19.697361   24.635039 H          1 MOL1         0.0814
     132    C3      18.688112   20.184665   24.761599 C.2        1 MOL1        -0.1394
     133    H2      19.444996   20.967198   24.770218 H          1 MOL1         0.0817
     134    C4      19.195130   18.761953   24.885316 C.3        1 MOL1        -0.1849
     135    H3      18.498499   18.069146   24.394133 H          1 MOL1         0.0736
     136    H4      19.219548   18.476423   25.945047 H          1 MOL1         0.0736
     137    C5      20.602872   18.575995   24.279982 C.3        1 MOL1        -0.1866
     138    H5      21.319243   19.220924   24.805617 H          1 MOL1         0.0738
     139    H6      20.930230   17.541431   24.449920 H          1 MOL1         0.0738
     140    C6      20.635780   18.879932   22.768317 C.3        1 MOL1        -0.2879
     141    H7      20.380182   19.927420   22.576227 H          1 MOL1         0.0750
     142    H8      21.637125   18.704700   22.363056 H          1 MOL1         0.0750
     143    H9      19.929035   18.241379   22.223003 H          1 MOL1         0.0750
@<TRIPOS>BOND
    1     1     2    1
    2     1     3    1
    3     1     4    1
    4     4     5    1
    5     4     6    1
    6     6     7    1
    7     4     8    1
    8     8     9    1
    9     8    10    1
   10    10    11    1
   11     8    12    1
   12    12    13    1
   13    12    14    1
   14    14    15    1
   15     1    16    1
   16    14    16    1
   17    14    17    1
   18    17    18    1
   19    17    19    1
   20    17    20    1
   21    20    21    1
   22    22    23    1
   23    22    24    1
   24    22    25    1
   25    25    26    1
   26    25    27    1
   27    27    28    1
   28    25    29    1
   29    29    30    1
   30    29    31    1
   31    31    32    1
   32     3    33    1
   33    29    33    1
   34    33    34    1
   35    33    35    1
   36    35    36    1
   37    22    37    1
   38    35    37    1
   39    35    38    1
   40    38    39    1
   41    38    40    1
   42    38    41    1
   43    41    42    1
   44    43    44    1
   45    43    45    1
   46    43    46    1
   47    46    47    1
   48    46    48    1
   49    48    49    1
   50    46    50    1
   51    50    51    1
   52    50    52    1
   53    52    53    1
   54    24    54    1
   55    50    54    1
   56    54    55    1
   57    54    56    1
   58    56    57    1
   59    43    58    1
   60    56    58    1
   61    56    59    1
   62    59    60    1
   63    59    61    1
   64    59    62    1
   65    62    63    1
   66    64    65    1
   67    64    66    1
   68    64    67    1
   69    67    68    1
   70    67    69    1
   71    69    70    1
   72    67    71    1
   73    71    72    1
   74    71    73    1
   75    73    74    1
   76    45    75    1
   77    71    75    1
   78    75    76    1
   79    75    77    1
   80    77    78    1
   81    64    79    1
   82    77    79    1
   83    77    80    1
   84    80    81    1
   85    80    82    1
   86    80    83    1
   87    83    84    1
   88    85    86    1
   89    85    87    1
   90    85    88    1
   91    88    89    1
   92    88    90    1
   93    90    91    1
   94    88    92    1
   95    92    93    1
   96    92    94    1
   97    94    95    1
   98    66    96    1
   99    92    96    1
  100    96    97    1
  101    96    98    1
  102    98    99    1
  103    85   100    1
  104    98   100    1
  105    98   101    1
  106   101   102    1
  107   101   103    1
  108   101   104    1
  109   104   105    1
  110   106   107    1
  111    12   108    1
  112   106   108    1
  113   106   109    1
  114   109   110    1
  115   109   111    1
  116   111   112    1
  117   109   113    1
  118   113   114    1
  119   113   115    1
  120   115   116    1
  121    87   117    1
  122   113   117    1
  123   117   118    1
  124   117   119    1
  125   119   120    1
  126   106   121    1
  127   119   121    1
  128   119   122    1
  129   122   123    1
  130   122   124    1
  131   122   125    1
  132   125   126    1
  133   127   128    1
  134   127   129    2
  135   127   130    1
  136   130   131    1
  137   130   132    2
  138   132   133    1
  139   132   134    1
  140   134   135    1
  141   134   136    1
  142   134   137    1
  143   137   138    1
  144   137   139    1
  145   137   140    1
  146   140   141    1
  147   140   142    1
  148   140   143    1
@<TRIPOS>SUBSTRUCTURE
       1 MOL1            1 RESIDUE      1      MOL     
       2 MOL1          143 RESIDUE      1      MOL     
@<SCITEGIC>MOL_PROPERTY
feprocess Rank
SciTegic.value.IntegerValue
191

@<SCITEGIC>MOL_PROPERTY
Conf_Id
SciTegic.value.IntegerValue
716

@<SCITEGIC>MOL_PROPERTY
Probability
SciTegic.value.DoubleValue
0.00

@<SCITEGIC>MOL_PROPERTY
G
SciTegic.value.DoubleValue
507.490

@<SCITEGIC>MOL_PROPERTY
E
SciTegic.value.DoubleValue
323.636

@<SCITEGIC>MOL_PROPERTY
-TS
SciTegic.value.DoubleValue
183.854

@<SCITEGIC>MOL_PROPERTY
U+W
SciTegic.value.DoubleValue
197.548

@<SCITEGIC>MOL_PROPERTY
U
SciTegic.value.DoubleValue
276.265

@<SCITEGIC>MOL_PROPERTY
W
SciTegic.value.DoubleValue
-78.717

@<SCITEGIC>MOL_PROPERTY
W(PB)
SciTegic.value.DoubleValue
-84.646

@<SCITEGIC>MOL_PROPERTY
W(SA)
SciTegic.value.DoubleValue
5.930

@<SCITEGIC>MOL_PROPERTY
Valence
SciTegic.value.DoubleValue
151.327

@<SCITEGIC>MOL_PROPERTY
Coulomb
SciTegic.value.DoubleValue
148.660

@<SCITEGIC>MOL_PROPERTY
VdW
SciTegic.value.DoubleValue
-23.723

@<SCITEGIC>MOL_PROPERTY
VdW6
SciTegic.value.DoubleValue
-183.222

@<SCITEGIC>MOL_PROPERTY
VdW12
SciTegic.value.DoubleValue
159.499

@<SCITEGIC>MOL_PROPERTY
Bond
SciTegic.value.DoubleValue
5.323

@<SCITEGIC>MOL_PROPERTY
Angle
SciTegic.value.DoubleValue
19.917

@<SCITEGIC>MOL_PROPERTY
Pdih
SciTegic.value.DoubleValue
126.084

@<SCITEGIC>MOL_PROPERTY
Idih
SciTegic.value.DoubleValue
0.003

@<SCITEGIC>MOL_PROPERTY
Tether
SciTegic.value.DoubleValue
0.000

@<TRIPOS>MOLECULE
CD_guest-s19_fast_vm2_rndm.mol2 : feprocess host+ligand conformer 192
         143         148           2
SMALL
USER_CHARGES
 
@<TRIPOS>ATOM
       1    C1      16.374313   15.491059   21.077274 C.3        1 MOL1         0.2972
       2    H1      16.531916   15.626302   20.003615 H          1 MOL1         0.0751
       3    O1      14.985915   15.789981   21.366913 O.3        1 MOL1        -0.3740
       4    C2      16.705688   14.012567   21.434079 C.3        1 MOL1         0.1003
       5    H2      16.437203   13.416201   20.552738 H          1 MOL1         0.0783
       6    O2      15.966527   13.528452   22.567779 O.3        1 MOL1        -0.5519
       7    H3      16.232515   14.088558   23.346774 H          1 MOL1         0.3769
       8    C3      18.217730   13.796392   21.724020 C.3        1 MOL1         0.1053
       9    H4      18.358399   13.862864   22.811165 H          1 MOL1         0.0783
      10    O3      18.593827   12.486990   21.283410 O.3        1 MOL1        -0.5519
      11    H5      18.013799   11.862243   21.770239 H          1 MOL1         0.3769
      12    C4      19.146218   14.873429   21.100385 C.3        1 MOL1         0.1018
      13    H6      19.238897   14.694338   20.021715 H          1 MOL1         0.0783
      14    C5      18.643319   16.327067   21.354905 C.3        1 MOL1         0.1043
      15    H7      19.236367   16.738306   22.180328 H          1 MOL1         0.0783
      16    O4      17.266177   16.360136   21.787701 O.3        1 MOL1        -0.3740
      17    C6      18.824043   17.303450   20.162208 C.3        1 MOL1         0.0138
      18    H8      19.888430   17.525729   20.031423 H          1 MOL1         0.0794
      19    H9      18.340095   18.248828   20.436231 H          1 MOL1         0.0794
      20    O5      18.278571   16.817115   18.929800 O.3        1 MOL1        -0.5486
      21    H10     18.948312   16.241055   18.504534 H          1 MOL1         0.3769
      22    C7      14.702281   20.080765   21.451661 C.3        1 MOL1         0.2972
      23    H11     14.181949   21.047493   21.438868 H          1 MOL1         0.0751
      24    O6      16.130790   20.268946   21.419953 O.3        1 MOL1        -0.3740
      25    C8      14.307965   19.324645   22.748013 C.3        1 MOL1         0.1003
      26    H12     13.211624   19.277968   22.768509 H          1 MOL1         0.0783
      27    O7      14.760607   20.063329   23.895256 O.3        1 MOL1        -0.5519
      28    H13     15.299338   20.818757   23.556452 H          1 MOL1         0.3769
      29    C9      14.834090   17.865742   22.764944 C.3        1 MOL1         0.1053
      30    H14     15.919344   17.910205   22.907413 H          1 MOL1         0.0783
      31    O8      14.221444   17.151833   23.844727 O.3        1 MOL1        -0.5519
      32    H15     14.942165   17.023067   24.517935 H          1 MOL1         0.3769
      33    C10     14.492648   17.160813   21.421196 C.3        1 MOL1         0.1018
      34    H16     13.397172   17.108826   21.387123 H          1 MOL1         0.0783
      35    C11     14.946885   17.997403   20.190919 C.3        1 MOL1         0.1043
      36    H17     16.038015   18.099700   20.210999 H          1 MOL1         0.0783
      37    O9      14.339090   19.308731   20.286176 O.3        1 MOL1        -0.3740
      38    C12     14.549809   17.390109   18.821396 C.3        1 MOL1         0.0138
      39    H18     15.228423   16.560016   18.587978 H          1 MOL1         0.0794
      40    H19     14.700605   18.150298   18.043352 H          1 MOL1         0.0794
      41    O10     13.194773   16.926391   18.800867 O.3        1 MOL1        -0.5486
      42    H20     13.133823   16.174871   19.430470 H          1 MOL1         0.3769
      43    C13     18.675898   23.509691   20.524163 C.3        1 MOL1         0.2972
      44    H21     19.052863   24.443701   20.087766 H          1 MOL1         0.0751
      45    O11     19.710331   22.799869   21.227924 O.3        1 MOL1        -0.3740
      46    C14     17.525494   23.792103   21.528050 C.3        1 MOL1         0.1003
      47    H22     16.733474   24.313545   20.974980 H          1 MOL1         0.0783
      48    O12     17.964463   24.628897   22.610018 O.3        1 MOL1        -0.5519
      49    H23     18.792749   24.229223   22.979185 H          1 MOL1         0.3769
      50    C15     16.931741   22.468212   22.071386 C.3        1 MOL1         0.1053
      51    H24     17.699391   21.955247   22.667846 H          1 MOL1         0.0783
      52    O13     15.790263   22.758928   22.884771 O.3        1 MOL1        -0.5519
      53    H25     16.066351   23.514260   23.451019 H          1 MOL1         0.3769
      54    C16     16.529040   21.550062   20.892620 C.3        1 MOL1         0.1018
      55    H26     15.707124   22.034336   20.348369 H          1 MOL1         0.0783
      56    C17     17.701139   21.341250   19.901195 C.3        1 MOL1         0.1043
      57    H27     18.509113   20.803300   20.414093 H          1 MOL1         0.0783
      58    O14     18.175221   22.643983   19.478555 O.3        1 MOL1        -0.3740
      59    C18     17.313956   20.525608   18.638649 C.3        1 MOL1         0.0138
      60    H28     17.375531   19.457239   18.875379 H          1 MOL1         0.0794
      61    H29     18.056671   20.720884   17.853851 H          1 MOL1         0.0794
      62    O15     15.996791   20.824585   18.158195 O.3        1 MOL1        -0.5486
      63    H30     15.357208   20.424669   18.792166 H          1 MOL1         0.3769
      64    C19     23.713020   22.843340   22.122470 C.3        1 MOL1         0.2972
      65    H31     24.769015   23.058183   22.331069 H          1 MOL1         0.0751
      66    O16     23.451660   21.427670   22.100921 O.3        1 MOL1        -0.3740
      67    C20     22.822475   23.469038   23.220456 C.3        1 MOL1         0.1003
      68    H32     22.965997   24.556958   23.189826 H          1 MOL1         0.0783
      69    O17     23.206071   22.970148   24.511735 O.3        1 MOL1        -0.5519
      70    H33     23.568956   22.063086   24.366931 H          1 MOL1         0.3769
      71    C21     21.330638   23.170127   22.946866 C.3        1 MOL1         0.1053
      72    H34     21.175877   22.094861   23.086476 H          1 MOL1         0.0783
      73    O18     20.520484   23.891666   23.879788 O.3        1 MOL1        -0.5519
      74    H35     20.933623   23.723996   24.756029 H          1 MOL1         0.3769
      75    C22     20.921184   23.534193   21.497055 C.3        1 MOL1         0.1018
      76    H36     20.767864   24.620299   21.443339 H          1 MOL1         0.0783
      77    C23     21.961051   23.083754   20.431059 C.3        1 MOL1         0.1043
      78    H37     21.862582   21.996708   20.323224 H          1 MOL1         0.0783
      79    O19     23.314215   23.396390   20.852221 O.3        1 MOL1        -0.3740
      80    C24     21.730770   23.704341   19.032176 C.3        1 MOL1         0.0138
      81    H38     20.829250   23.255207   18.594077 H          1 MOL1         0.0794
      82    H39     22.575945   23.433993   18.384923 H          1 MOL1         0.0794
      83    O20     21.585132   25.128499   19.091541 O.3        1 MOL1        -0.5486
      84    H40     21.523195   25.460660   18.169400 H          1 MOL1         0.3769
      85    C25     25.265826   17.733862   21.570064 C.3        1 MOL1         0.2972
      86    H41     25.965354   16.911315   21.372816 H          1 MOL1         0.0751
      87    O21     23.931621   17.249498   21.815167 O.3        1 MOL1        -0.3740
      88    C26     25.718246   18.517827   22.825913 C.3        1 MOL1         0.1003
      89    H42     26.719455   18.921754   22.627236 H          1 MOL1         0.0783
      90    O22     25.771980   17.642748   23.963808 O.3        1 MOL1        -0.5519
      91    H43     25.110316   16.927189   23.801105 H          1 MOL1         0.3769
      92    C27     24.764148   19.703585   23.098568 C.3        1 MOL1         0.1053
      93    H44     23.786537   19.288256   23.374293 H          1 MOL1         0.0783
      94    O23     25.271741   20.499116   24.174808 O.3        1 MOL1        -0.5519
      95    H45     25.528093   19.852870   24.869754 H          1 MOL1         0.3769
      96    C28     24.579277   20.576608   21.833324 C.3        1 MOL1         0.1018
      97    H46     25.501782   21.146101   21.659873 H          1 MOL1         0.0783
      98    C29     24.247641   19.723664   20.576595 C.3        1 MOL1         0.1043
      99    H47     23.245877   19.300397   20.722309 H          1 MOL1         0.0783
     100    O24     25.212289   18.646902   20.452936 O.3        1 MOL1        -0.3740
     101    C30     24.219820   20.503419   19.235284 C.3        1 MOL1         0.0138
     102    H48     23.195884   20.848634   19.050427 H          1 MOL1         0.0794
     103    H49     24.465684   19.807975   18.421544 H          1 MOL1         0.0794
     104    O25     25.115337   21.620468   19.208198 O.3        1 MOL1        -0.5486
     105    H50     24.692514   22.340927   19.731565 H          1 MOL1         0.3769
     106    C31     21.431081   13.994816   21.069299 C.3        1 MOL1         0.2972
     107    H51     21.024064   13.040504   20.711838 H          1 MOL1         0.0751
     108    O26     20.422688   14.753676   21.769504 O.3        1 MOL1        -0.3740
     109    C32     22.610194   13.737343   22.043703 C.3        1 MOL1         0.1003
     110    H52     23.366741   13.153952   21.502919 H          1 MOL1         0.0783
     111    O27     22.163242   12.994800   23.186993 O.3        1 MOL1        -0.5519
     112    H53     21.306244   13.397221   23.450695 H          1 MOL1         0.3769
     113    C33     23.259504   15.066952   22.495054 C.3        1 MOL1         0.1053
     114    H54     22.529892   15.612108   23.109608 H          1 MOL1         0.0783
     115    O28     24.434216   14.795161   23.266819 O.3        1 MOL1        -0.5519
     116    H55     24.171214   14.087412   23.896286 H          1 MOL1         0.3769
     117    C34     23.619839   15.951858   21.279292 C.3        1 MOL1         0.1018
     118    H56     24.470093   15.501489   20.750163 H          1 MOL1         0.0783
     119    C35     22.418657   16.100331   20.307073 C.3        1 MOL1         0.1043
     120    H57     21.639377   16.658029   20.836819 H          1 MOL1         0.0783
     121    O29     21.916065   14.786419   19.961725 O.3        1 MOL1        -0.3740
     122    C36     22.719055   16.863620   18.991068 C.3        1 MOL1         0.0138
     123    H58     22.533348   17.931745   19.153351 H          1 MOL1         0.0794
     124    H59     22.003623   16.534059   18.225880 H          1 MOL1         0.0794
     125    O30     24.057788   16.673630   18.520408 O.3        1 MOL1        -0.5486
     126    H60     24.640215   17.247709   19.070329 H          1 MOL1         0.3769
     127    C1      17.366319   16.014943   25.011645 C.2        1 MOL1         0.6173
     128    O1      17.106894   14.850818   24.773941 O.co2      1 MOL1        -0.6755
     129    O2      16.531095   16.812057   25.395897 O.co2      1 MOL1        -0.6755
     130    C2      18.773632   16.458847   24.811336 C.2        1 MOL1        -0.1504
     131    H1      19.473643   15.685705   24.504545 H          1 MOL1         0.0814
     132    C3      19.192601   17.734573   24.975438 C.2        1 MOL1        -0.1394
     133    H2      18.491133   18.513038   25.274826 H          1 MOL1         0.0817
     134    C4      20.626354   18.185426   24.776435 C.3        1 MOL1        -0.1849
     135    H3      21.207219   17.413346   24.254591 H          1 MOL1         0.0736
     136    H4      21.098068   18.312381   25.759595 H          1 MOL1         0.0736
     137    C5      20.725455   19.517361   24.000277 C.3        1 MOL1        -0.1866
     138    H5      20.098559   20.279347   24.483537 H          1 MOL1         0.0738
     139    H6      21.756446   19.887706   24.052360 H          1 MOL1         0.0738
     140    C6      20.316134   19.365214   22.521909 C.3        1 MOL1        -0.2879
     141    H7      19.252090   19.109082   22.446455 H          1 MOL1         0.0750
     142    H8      20.477095   20.297311   21.969369 H          1 MOL1         0.0750
     143    H9      20.908709   18.581165   22.036602 H          1 MOL1         0.0750
@<TRIPOS>BOND
    1     1     2    1
    2     1     3    1
    3     1     4    1
    4     4     5    1
    5     4     6    1
    6     6     7    1
    7     4     8    1
    8     8     9    1
    9     8    10    1
   10    10    11    1
   11     8    12    1
   12    12    13    1
   13    12    14    1
   14    14    15    1
   15     1    16    1
   16    14    16    1
   17    14    17    1
   18    17    18    1
   19    17    19    1
   20    17    20    1
   21    20    21    1
   22    22    23    1
   23    22    24    1
   24    22    25    1
   25    25    26    1
   26    25    27    1
   27    27    28    1
   28    25    29    1
   29    29    30    1
   30    29    31    1
   31    31    32    1
   32     3    33    1
   33    29    33    1
   34    33    34    1
   35    33    35    1
   36    35    36    1
   37    22    37    1
   38    35    37    1
   39    35    38    1
   40    38    39    1
   41    38    40    1
   42    38    41    1
   43    41    42    1
   44    43    44    1
   45    43    45    1
   46    43    46    1
   47    46    47    1
   48    46    48    1
   49    48    49    1
   50    46    50    1
   51    50    51    1
   52    50    52    1
   53    52    53    1
   54    24    54    1
   55    50    54    1
   56    54    55    1
   57    54    56    1
   58    56    57    1
   59    43    58    1
   60    56    58    1
   61    56    59    1
   62    59    60    1
   63    59    61    1
   64    59    62    1
   65    62    63    1
   66    64    65    1
   67    64    66    1
   68    64    67    1
   69    67    68    1
   70    67    69    1
   71    69    70    1
   72    67    71    1
   73    71    72    1
   74    71    73    1
   75    73    74    1
   76    45    75    1
   77    71    75    1
   78    75    76    1
   79    75    77    1
   80    77    78    1
   81    64    79    1
   82    77    79    1
   83    77    80    1
   84    80    81    1
   85    80    82    1
   86    80    83    1
   87    83    84    1
   88    85    86    1
   89    85    87    1
   90    85    88    1
   91    88    89    1
   92    88    90    1
   93    90    91    1
   94    88    92    1
   95    92    93    1
   96    92    94    1
   97    94    95    1
   98    66    96    1
   99    92    96    1
  100    96    97    1
  101    96    98    1
  102    98    99    1
  103    85   100    1
  104    98   100    1
  105    98   101    1
  106   101   102    1
  107   101   103    1
  108   101   104    1
  109   104   105    1
  110   106   107    1
  111    12   108    1
  112   106   108    1
  113   106   109    1
  114   109   110    1
  115   109   111    1
  116   111   112    1
  117   109   113    1
  118   113   114    1
  119   113   115    1
  120   115   116    1
  121    87   117    1
  122   113   117    1
  123   117   118    1
  124   117   119    1
  125   119   120    1
  126   106   121    1
  127   119   121    1
  128   119   122    1
  129   122   123    1
  130   122   124    1
  131   122   125    1
  132   125   126    1
  133   127   128    1
  134   127   129    2
  135   127   130    1
  136   130   131    1
  137   130   132    2
  138   132   133    1
  139   132   134    1
  140   134   135    1
  141   134   136    1
  142   134   137    1
  143   137   138    1
  144   137   139    1
  145   137   140    1
  146   140   141    1
  147   140   142    1
  148   140   143    1
@<TRIPOS>SUBSTRUCTURE
       1 MOL1            1 RESIDUE      1      MOL     
       2 MOL1          143 RESIDUE      1      MOL     
@<SCITEGIC>MOL_PROPERTY
feprocess Rank
SciTegic.value.IntegerValue
192

@<SCITEGIC>MOL_PROPERTY
Conf_Id
SciTegic.value.IntegerValue
48

@<SCITEGIC>MOL_PROPERTY
Probability
SciTegic.value.DoubleValue
0.00

@<SCITEGIC>MOL_PROPERTY
G
SciTegic.value.DoubleValue
507.569

@<SCITEGIC>MOL_PROPERTY
E
SciTegic.value.DoubleValue
325.626

@<SCITEGIC>MOL_PROPERTY
-TS
SciTegic.value.DoubleValue
181.943

@<SCITEGIC>MOL_PROPERTY
U+W
SciTegic.value.DoubleValue
199.538

@<SCITEGIC>MOL_PROPERTY
U
SciTegic.value.DoubleValue
284.485

@<SCITEGIC>MOL_PROPERTY
W
SciTegic.value.DoubleValue
-84.947

@<SCITEGIC>MOL_PROPERTY
W(PB)
SciTegic.value.DoubleValue
-90.924

@<SCITEGIC>MOL_PROPERTY
W(SA)
SciTegic.value.DoubleValue
5.977

@<SCITEGIC>MOL_PROPERTY
Valence
SciTegic.value.DoubleValue
151.491

@<SCITEGIC>MOL_PROPERTY
Coulomb
SciTegic.value.DoubleValue
155.998

@<SCITEGIC>MOL_PROPERTY
VdW
SciTegic.value.DoubleValue
-23.004

@<SCITEGIC>MOL_PROPERTY
VdW6
SciTegic.value.DoubleValue
-179.782

@<SCITEGIC>MOL_PROPERTY
VdW12
SciTegic.value.DoubleValue
156.778

@<SCITEGIC>MOL_PROPERTY
Bond
SciTegic.value.DoubleValue
5.104

@<SCITEGIC>MOL_PROPERTY
Angle
SciTegic.value.DoubleValue
16.896

@<SCITEGIC>MOL_PROPERTY
Pdih
SciTegic.value.DoubleValue
129.491

@<SCITEGIC>MOL_PROPERTY
Idih
SciTegic.value.DoubleValue
0.001

@<SCITEGIC>MOL_PROPERTY
Tether
SciTegic.value.DoubleValue
0.000

@<TRIPOS>MOLECULE
CD_guest-s19_fast_vm2_rndm.mol2 : feprocess host+ligand conformer 193
         143         148           2
SMALL
USER_CHARGES
 
@<TRIPOS>ATOM
       1    C1      16.240114   15.236814   20.076765 C.3        1 MOL1         0.2972
       2    H1      15.362095   15.179429   19.420506 H          1 MOL1         0.0751
       3    O1      15.978066   16.049038   21.235814 O.3        1 MOL1        -0.3740
       4    C2      16.633806   13.826084   20.573293 C.3        1 MOL1         0.1003
       5    H2      16.851158   13.213582   19.688440 H          1 MOL1         0.0783
       6    O2      15.548464   13.239312   21.306925 O.3        1 MOL1        -0.5519
       7    H3      15.246186   13.930198   21.939961 H          1 MOL1         0.3769
       8    C3      17.906350   13.866888   21.456983 C.3        1 MOL1         0.1053
       9    H4      17.640436   14.361044   22.399609 H          1 MOL1         0.0783
      10    O3      18.308223   12.517817   21.711501 O.3        1 MOL1        -0.5519
      11    H5      17.486187   12.048904   21.976961 H          1 MOL1         0.3769
      12    C4      19.063954   14.678301   20.803706 C.3        1 MOL1         0.1018
      13    H6      19.532186   14.067495   20.021955 H          1 MOL1         0.0783
      14    C5      18.556670   16.014615   20.183716 C.3        1 MOL1         0.1043
      15    H7      18.302252   16.696864   21.005594 H          1 MOL1         0.0783
      16    O4      17.380935   15.772229   19.379860 O.3        1 MOL1        -0.3740
      17    C6      19.580115   16.749278   19.284001 C.3        1 MOL1         0.0138
      18    H8      20.361783   17.184948   19.919582 H          1 MOL1         0.0794
      19    H9      19.070757   17.587553   18.791344 H          1 MOL1         0.0794
      20    O5      20.155865   15.893068   18.288814 O.3        1 MOL1        -0.5486
      21    H10     20.545023   15.117784   18.741011 H          1 MOL1         0.3769
      22    C7      14.868994   19.997927   21.808361 C.3        1 MOL1         0.2972
      23    H11     14.330088   20.948557   21.879158 H          1 MOL1         0.0751
      24    O6      16.262924   20.152643   22.167738 O.3        1 MOL1        -0.3740
      25    C8      14.202616   18.971604   22.750030 C.3        1 MOL1         0.1003
      26    H12     13.152590   18.874615   22.444540 H          1 MOL1         0.0783
      27    O7      14.264617   19.425313   24.110148 O.3        1 MOL1        -0.5519
      28    H13     15.177062   19.765516   24.240261 H          1 MOL1         0.3769
      29    C9      14.868372   17.587111   22.621950 C.3        1 MOL1         0.1053
      30    H14     15.882776   17.669906   23.032862 H          1 MOL1         0.0783
      31    O8      14.112728   16.641295   23.386756 O.3        1 MOL1        -0.5519
      32    H15     13.974219   17.067991   24.260571 H          1 MOL1         0.3769
      33    C10     14.992103   17.106114   21.152311 C.3        1 MOL1         0.1018
      34    H16     14.019949   16.707656   20.835492 H          1 MOL1         0.0783
      35    C11     15.450465   18.241900   20.174215 C.3        1 MOL1         0.1043
      36    H17     16.527899   18.383358   20.304009 H          1 MOL1         0.0783
      37    O9      14.774438   19.489533   20.466522 O.3        1 MOL1        -0.3740
      38    C12     15.170072   17.973425   18.670738 C.3        1 MOL1         0.0138
      39    H18     15.926930   17.297210   18.260929 H          1 MOL1         0.0794
      40    H19     15.278481   18.920938   18.125876 H          1 MOL1         0.0794
      41    O10     13.862292   17.431581   18.449705 O.3        1 MOL1        -0.5486
      42    H20     13.723508   17.373665   17.479099 H          1 MOL1         0.3769
      43    C13     18.714091   23.422513   21.268366 C.3        1 MOL1         0.2972
      44    H21     18.352106   23.312010   20.238614 H          1 MOL1         0.0751
      45    O11     19.649470   24.531277   21.308953 O.3        1 MOL1        -0.3740
      46    C14     17.524843   23.772599   22.205302 C.3        1 MOL1         0.1003
      47    H22     16.871008   24.447777   21.638034 H          1 MOL1         0.0783
      48    O12     17.960408   24.433143   23.404928 O.3        1 MOL1        -0.5519
      49    H23     18.933281   24.586620   23.302409 H          1 MOL1         0.3769
      50    C15     16.705401   22.519545   22.614452 C.3        1 MOL1         0.1053
      51    H24     17.071559   22.185172   23.595564 H          1 MOL1         0.0783
      52    O13     15.331344   22.903146   22.726296 O.3        1 MOL1        -0.5519
      53    H25     15.305756   23.616074   23.400763 H          1 MOL1         0.3769
      54    C16     16.914786   21.331105   21.633052 C.3        1 MOL1         0.1018
      55    H26     16.505312   21.595141   20.649693 H          1 MOL1         0.0783
      56    C17     18.435820   21.002975   21.503603 C.3        1 MOL1         0.1043
      57    H27     18.687883   20.299523   22.304775 H          1 MOL1         0.0783
      58    O14     19.272750   22.169541   21.694925 O.3        1 MOL1        -0.3740
      59    C18     18.843586   20.323212   20.175959 C.3        1 MOL1         0.0138
      60    H28     18.413343   19.316766   20.148437 H          1 MOL1         0.0794
      61    H29     19.934630   20.203248   20.177803 H          1 MOL1         0.0794
      62    O15     18.438504   21.068589   19.021829 O.3        1 MOL1        -0.5486
      63    H30     17.488584   20.889997   18.859935 H          1 MOL1         0.3769
      64    C19     23.623841   22.940485   21.664334 C.3        1 MOL1         0.2972
      65    H31     24.720448   22.967168   21.706169 H          1 MOL1         0.0751
      66    O16     23.143566   21.582230   21.677386 O.3        1 MOL1        -0.3740
      67    C20     23.049289   23.722765   22.880416 C.3        1 MOL1         0.1003
      68    H32     23.421550   24.752045   22.801642 H          1 MOL1         0.0783
      69    O17     23.516864   23.169151   24.118524 O.3        1 MOL1        -0.5519
      70    H33     23.048568   22.299613   24.249288 H          1 MOL1         0.3769
      71    C21     21.503655   23.777201   22.819395 C.3        1 MOL1         0.1053
      72    H34     21.146709   22.747371   22.901392 H          1 MOL1         0.0783
      73    O18     20.970582   24.561307   23.891986 O.3        1 MOL1        -0.5519
      74    H35     20.930422   23.934389   24.662946 H          1 MOL1         0.3769
      75    C22     21.087512   24.369924   21.448442 C.3        1 MOL1         0.1018
      76    H36     21.526391   25.374817   21.406517 H          1 MOL1         0.0783
      77    C23     21.698601   23.559187   20.275009 C.3        1 MOL1         0.1043
      78    H37     21.313875   22.534324   20.320568 H          1 MOL1         0.0783
      79    O19     23.143226   23.543566   20.436657 O.3        1 MOL1        -0.3740
      80    C24     21.360588   24.125925   18.874207 C.3        1 MOL1         0.0138
      81    H38     20.315085   23.881535   18.642259 H          1 MOL1         0.0794
      82    H39     21.983025   23.617300   18.126295 H          1 MOL1         0.0794
      83    O20     21.554773   25.542866   18.797138 O.3        1 MOL1        -0.5486
      84    H40     20.888589   25.959556   19.386460 H          1 MOL1         0.3769
      85    C25     24.532217   17.724177   20.794045 C.3        1 MOL1         0.2972
      86    H41     25.113338   16.885640   20.390042 H          1 MOL1         0.0751
      87    O21     23.312873   17.272457   21.404386 O.3        1 MOL1        -0.3740
      88    C26     25.357689   18.507396   21.849610 C.3        1 MOL1         0.1003
      89    H42     26.287293   18.819322   21.356090 H          1 MOL1         0.0783
      90    O22     25.684365   17.676757   22.976685 O.3        1 MOL1        -0.5519
      91    H43     24.831702   17.335169   23.347015 H          1 MOL1         0.3769
      92    C27     24.627651   19.789346   22.326966 C.3        1 MOL1         0.1053
      93    H44     23.783670   19.496170   22.968228 H          1 MOL1         0.0783
      94    O23     25.559503   20.584767   23.067204 O.3        1 MOL1        -0.5519
      95    H45     25.890767   20.001948   23.783725 H          1 MOL1         0.3769
      96    C28     24.066356   20.612908   21.138842 C.3        1 MOL1         0.1018
      97    H46     24.908625   21.093799   20.624158 H          1 MOL1         0.0783
      98    C29     23.304177   19.727471   20.117573 C.3        1 MOL1         0.1043
      99    H47     22.398127   19.339163   20.601110 H          1 MOL1         0.0783
     100    O24     24.166492   18.629917   19.732167 O.3        1 MOL1        -0.3740
     101    C30     22.854863   20.460242   18.826764 C.3        1 MOL1         0.0138
     102    H48     21.878570   20.925037   19.007383 H          1 MOL1         0.0794
     103    H49     22.703685   19.712267   18.036982 H          1 MOL1         0.0794
     104    O25     23.789626   21.453671   18.387906 O.3        1 MOL1        -0.5486
     105    H50     23.734543   22.206454   19.022421 H          1 MOL1         0.3769
     106    C31     21.003207   14.045121   22.206010 C.3        1 MOL1         0.2972
     107    H51     20.534226   13.083743   22.443968 H          1 MOL1         0.0751
     108    O26     20.016139   15.038152   21.833517 O.3        1 MOL1        -0.3740
     109    C32     21.785859   14.559264   23.438619 C.3        1 MOL1         0.1003
     110    H52     22.586098   13.836784   23.645882 H          1 MOL1         0.0783
     111    O27     20.933703   14.661798   24.588533 O.3        1 MOL1        -0.5519
     112    H53     20.180568   15.243078   24.341115 H          1 MOL1         0.3769
     113    C33     22.438566   15.923576   23.130373 C.3        1 MOL1         0.1053
     114    H54     21.632680   16.657258   23.003150 H          1 MOL1         0.0783
     115    O28     23.281491   16.319108   24.218025 O.3        1 MOL1        -0.5519
     116    H55     22.741105   16.185847   25.027770 H          1 MOL1         0.3769
     117    C34     23.265394   15.896254   21.823178 C.3        1 MOL1         0.1018
     118    H56     24.262640   15.494367   22.046546 H          1 MOL1         0.0783
     119    C35     22.600866   15.094074   20.665289 C.3        1 MOL1         0.1043
     120    H57     21.836733   15.740252   20.233944 H          1 MOL1         0.0783
     121    O29     21.959155   13.884348   21.137086 O.3        1 MOL1        -0.3740
     122    C36     23.567138   14.717815   19.516513 C.3        1 MOL1         0.0138
     123    H58     23.807408   15.626063   18.947699 H          1 MOL1         0.0794
     124    H59     23.047116   14.035735   18.830530 H          1 MOL1         0.0794
     125    O30     24.770985   14.111239   20.000699 O.3        1 MOL1        -0.5486
     126    H60     25.292846   13.818823   19.221526 H          1 MOL1         0.3769
     127    C1      20.845824   21.150137   25.012658 C.2        1 MOL1         0.6173
     128    O1      21.989996   20.904840   24.678882 O.co2      1 MOL1        -0.6755
     129    O2      20.511829   22.223763   25.477959 O.co2      1 MOL1        -0.6755
     130    C2      19.788782   20.125712   24.794953 C.2        1 MOL1        -0.1504
     131    H1      18.783894   20.402656   25.103964 H          1 MOL1         0.0814
     132    C3      20.029194   18.914469   24.243320 C.2        1 MOL1        -0.1394
     133    H2      21.036868   18.641274   23.933078 H          1 MOL1         0.0817
     134    C4      18.965576   17.862128   24.019441 C.3        1 MOL1        -0.1849
     135    H3      19.304860   17.156649   23.252714 H          1 MOL1         0.0736
     136    H4      18.049749   18.326678   23.632641 H          1 MOL1         0.0736
     137    C5      18.651828   17.105739   25.325822 C.3        1 MOL1        -0.1866
     138    H5      19.585027   16.751755   25.784209 H          1 MOL1         0.0738
     139    H6      18.195148   17.798080   26.046351 H          1 MOL1         0.0738
     140    C6      17.706565   15.910710   25.092180 C.3        1 MOL1        -0.2879
     141    H7      18.155816   15.175848   24.415192 H          1 MOL1         0.0750
     142    H8      17.487552   15.403055   26.040301 H          1 MOL1         0.0750
     143    H9      16.753869   16.238565   24.659012 H          1 MOL1         0.0750
@<TRIPOS>BOND
    1     1     2    1
    2     1     3    1
    3     1     4    1
    4     4     5    1
    5     4     6    1
    6     6     7    1
    7     4     8    1
    8     8     9    1
    9     8    10    1
   10    10    11    1
   11     8    12    1
   12    12    13    1
   13    12    14    1
   14    14    15    1
   15     1    16    1
   16    14    16    1
   17    14    17    1
   18    17    18    1
   19    17    19    1
   20    17    20    1
   21    20    21    1
   22    22    23    1
   23    22    24    1
   24    22    25    1
   25    25    26    1
   26    25    27    1
   27    27    28    1
   28    25    29    1
   29    29    30    1
   30    29    31    1
   31    31    32    1
   32     3    33    1
   33    29    33    1
   34    33    34    1
   35    33    35    1
   36    35    36    1
   37    22    37    1
   38    35    37    1
   39    35    38    1
   40    38    39    1
   41    38    40    1
   42    38    41    1
   43    41    42    1
   44    43    44    1
   45    43    45    1
   46    43    46    1
   47    46    47    1
   48    46    48    1
   49    48    49    1
   50    46    50    1
   51    50    51    1
   52    50    52    1
   53    52    53    1
   54    24    54    1
   55    50    54    1
   56    54    55    1
   57    54    56    1
   58    56    57    1
   59    43    58    1
   60    56    58    1
   61    56    59    1
   62    59    60    1
   63    59    61    1
   64    59    62    1
   65    62    63    1
   66    64    65    1
   67    64    66    1
   68    64    67    1
   69    67    68    1
   70    67    69    1
   71    69    70    1
   72    67    71    1
   73    71    72    1
   74    71    73    1
   75    73    74    1
   76    45    75    1
   77    71    75    1
   78    75    76    1
   79    75    77    1
   80    77    78    1
   81    64    79    1
   82    77    79    1
   83    77    80    1
   84    80    81    1
   85    80    82    1
   86    80    83    1
   87    83    84    1
   88    85    86    1
   89    85    87    1
   90    85    88    1
   91    88    89    1
   92    88    90    1
   93    90    91    1
   94    88    92    1
   95    92    93    1
   96    92    94    1
   97    94    95    1
   98    66    96    1
   99    92    96    1
  100    96    97    1
  101    96    98    1
  102    98    99    1
  103    85   100    1
  104    98   100    1
  105    98   101    1
  106   101   102    1
  107   101   103    1
  108   101   104    1
  109   104   105    1
  110   106   107    1
  111    12   108    1
  112   106   108    1
  113   106   109    1
  114   109   110    1
  115   109   111    1
  116   111   112    1
  117   109   113    1
  118   113   114    1
  119   113   115    1
  120   115   116    1
  121    87   117    1
  122   113   117    1
  123   117   118    1
  124   117   119    1
  125   119   120    1
  126   106   121    1
  127   119   121    1
  128   119   122    1
  129   122   123    1
  130   122   124    1
  131   122   125    1
  132   125   126    1
  133   127   128    1
  134   127   129    2
  135   127   130    1
  136   130   131    1
  137   130   132    2
  138   132   133    1
  139   132   134    1
  140   134   135    1
  141   134   136    1
  142   134   137    1
  143   137   138    1
  144   137   139    1
  145   137   140    1
  146   140   141    1
  147   140   142    1
  148   140   143    1
@<TRIPOS>SUBSTRUCTURE
       1 MOL1            1 RESIDUE      1      MOL     
       2 MOL1          143 RESIDUE      1      MOL     
@<SCITEGIC>MOL_PROPERTY
feprocess Rank
SciTegic.value.IntegerValue
193

@<SCITEGIC>MOL_PROPERTY
Conf_Id
SciTegic.value.IntegerValue
838

@<SCITEGIC>MOL_PROPERTY
Probability
SciTegic.value.DoubleValue
0.00

@<SCITEGIC>MOL_PROPERTY
G
SciTegic.value.DoubleValue
507.731

@<SCITEGIC>MOL_PROPERTY
E
SciTegic.value.DoubleValue
326.468

@<SCITEGIC>MOL_PROPERTY
-TS
SciTegic.value.DoubleValue
181.263

@<SCITEGIC>MOL_PROPERTY
U+W
SciTegic.value.DoubleValue
200.380

@<SCITEGIC>MOL_PROPERTY
U
SciTegic.value.DoubleValue
279.695

@<SCITEGIC>MOL_PROPERTY
W
SciTegic.value.DoubleValue
-79.309

@<SCITEGIC>MOL_PROPERTY
W(PB)
SciTegic.value.DoubleValue
-85.263

@<SCITEGIC>MOL_PROPERTY
W(SA)
SciTegic.value.DoubleValue
5.955

@<SCITEGIC>MOL_PROPERTY
Valence
SciTegic.value.DoubleValue
145.172

@<SCITEGIC>MOL_PROPERTY
Coulomb
SciTegic.value.DoubleValue
156.586

@<SCITEGIC>MOL_PROPERTY
VdW
SciTegic.value.DoubleValue
-22.063

@<SCITEGIC>MOL_PROPERTY
VdW6
SciTegic.value.DoubleValue
-176.481

@<SCITEGIC>MOL_PROPERTY
VdW12
SciTegic.value.DoubleValue
154.418

@<SCITEGIC>MOL_PROPERTY
Bond
SciTegic.value.DoubleValue
5.320

@<SCITEGIC>MOL_PROPERTY
Angle
SciTegic.value.DoubleValue
20.769

@<SCITEGIC>MOL_PROPERTY
Pdih
SciTegic.value.DoubleValue
119.077

@<SCITEGIC>MOL_PROPERTY
Idih
SciTegic.value.DoubleValue
0.005

@<SCITEGIC>MOL_PROPERTY
Tether
SciTegic.value.DoubleValue
0.000

@<TRIPOS>MOLECULE
CD_guest-s19_fast_vm2_rndm.mol2 : feprocess host+ligand conformer 194
         143         148           2
SMALL
USER_CHARGES
 
@<TRIPOS>ATOM
       1    C1      16.358760   14.734166   21.992881 C.3        1 MOL1         0.2972
       2    H1      15.270201   14.761886   22.130608 H          1 MOL1         0.0751
       3    O1      16.931065   16.057444   21.978956 O.3        1 MOL1        -0.3740
       4    C2      16.995859   13.908515   23.129126 C.3        1 MOL1         0.1003
       5    H2      16.583734   12.892812   23.068173 H          1 MOL1         0.0783
       6    O2      16.671309   14.475487   24.408673 O.3        1 MOL1        -0.5519
       7    H3      16.479982   15.435625   24.261764 H          1 MOL1         0.3769
       8    C3      18.525287   13.810903   22.953114 C.3        1 MOL1         0.1053
       9    H4      18.941211   14.808923   23.145488 H          1 MOL1         0.0783
      10    O3      19.034817   12.884324   23.918070 O.3        1 MOL1        -0.5519
      11    H5      18.635012   13.161714   24.771585 H          1 MOL1         0.3769
      12    C4      18.955656   13.391003   21.518839 C.3        1 MOL1         0.1018
      13    H6      18.853794   12.302354   21.428550 H          1 MOL1         0.0783
      14    C5      18.101064   14.084629   20.397083 C.3        1 MOL1         0.1043
      15    H7      18.446622   15.119481   20.295375 H          1 MOL1         0.0783
      16    O4      16.694451   14.096251   20.751005 O.3        1 MOL1        -0.3740
      17    C6      18.166465   13.418691   18.995791 C.3        1 MOL1         0.0138
      18    H8      19.086140   13.720219   18.481821 H          1 MOL1         0.0794
      19    H9      17.335834   13.806806   18.390588 H          1 MOL1         0.0794
      20    O5      18.091980   11.990226   19.067714 O.3        1 MOL1        -0.5486
      21    H10     18.040830   11.646756   18.148899 H          1 MOL1         0.3769
      22    C7      15.527138   20.007056   21.542499 C.3        1 MOL1         0.2972
      23    H11     14.828430   20.831616   21.354742 H          1 MOL1         0.0751
      24    O6      16.870827   20.506420   21.707112 O.3        1 MOL1        -0.3740
      25    C8      15.072771   19.233173   22.810316 C.3        1 MOL1         0.1003
      26    H12     14.044837   18.899954   22.617569 H          1 MOL1         0.0783
      27    O7      15.062569   20.065933   23.981650 O.3        1 MOL1        -0.5519
      28    H13     15.985630   20.398802   24.152901 H          1 MOL1         0.3769
      29    C9      15.927830   17.968643   23.039074 C.3        1 MOL1         0.1053
      30    H14     16.946914   18.286173   23.273476 H          1 MOL1         0.0783
      31    O8      15.380537   17.203671   24.118458 O.3        1 MOL1        -0.5519
      32    H15     15.193064   17.860416   24.825947 H          1 MOL1         0.3769
      33    C10     15.981724   17.116756   21.753366 C.3        1 MOL1         0.1018
      34    H16     14.973990   16.731152   21.548888 H          1 MOL1         0.0783
      35    C11     16.441156   17.967549   20.541063 C.3        1 MOL1         0.1043
      36    H17     17.459617   18.328393   20.735550 H          1 MOL1         0.0783
      37    O9      15.539465   19.096127   20.416354 O.3        1 MOL1        -0.3740
      38    C12     16.467539   17.207424   19.189668 C.3        1 MOL1         0.0138
      39    H18     17.434453   16.699812   19.091458 H          1 MOL1         0.0794
      40    H19     16.409602   17.941350   18.374906 H          1 MOL1         0.0794
      41    O10     15.411777   16.248117   19.061712 O.3        1 MOL1        -0.5486
      42    H20     15.664232   15.464722   19.603595 H          1 MOL1         0.3769
      43    C13     19.017961   23.754940   20.021092 C.3        1 MOL1         0.2972
      44    H21     18.930627   23.727343   18.928290 H          1 MOL1         0.0751
      45    O11     19.916940   24.849809   20.373178 O.3        1 MOL1        -0.3740
      46    C14     17.604334   24.063579   20.617840 C.3        1 MOL1         0.1003
      47    H22     16.933287   24.209648   19.761464 H          1 MOL1         0.0783
      48    O12     17.575921   25.249635   21.433652 O.3        1 MOL1        -0.5519
      49    H23     18.425831   25.257407   21.940844 H          1 MOL1         0.3769
      50    C15     17.028202   22.901276   21.456025 C.3        1 MOL1         0.1053
      51    H24     17.559372   22.870694   22.416953 H          1 MOL1         0.0783
      52    O13     15.637133   23.164106   21.670286 O.3        1 MOL1        -0.5519
      53    H25     15.605696   24.075330   22.036472 H          1 MOL1         0.3769
      54    C16     17.225111   21.536450   20.755888 C.3        1 MOL1         0.1018
      55    H26     16.567834   21.497369   19.877869 H          1 MOL1         0.0783
      56    C17     18.695148   21.298963   20.302872 C.3        1 MOL1         0.1043
      57    H27     19.118183   20.523706   20.955674 H          1 MOL1         0.0783
      58    O14     19.518911   22.476971   20.478608 O.3        1 MOL1        -0.3740
      59    C18     18.832579   20.775070   18.850340 C.3        1 MOL1         0.0138
      60    H28     18.444894   19.748691   18.806554 H          1 MOL1         0.0794
      61    H29     19.900372   20.724665   18.599240 H          1 MOL1         0.0794
      62    O15     18.145739   21.596350   17.897492 O.3        1 MOL1        -0.5486
      63    H30     17.238748   21.239550   17.784888 H          1 MOL1         0.3769
      64    C19     23.054355   23.062539   22.635060 C.3        1 MOL1         0.2972
      65    H31     23.962277   22.943845   23.240138 H          1 MOL1         0.0751
      66    O16     22.552130   21.773580   22.211433 O.3        1 MOL1        -0.3740
      67    C20     21.988924   23.832376   23.466610 C.3        1 MOL1         0.1003
      68    H32     22.417759   24.814723   23.702587 H          1 MOL1         0.0783
      69    O17     21.707404   23.149235   24.698001 O.3        1 MOL1        -0.5519
      70    H33     20.745365   22.911435   24.692862 H          1 MOL1         0.3769
      71    C21     20.702141   24.069483   22.642519 C.3        1 MOL1         0.1053
      72    H34     20.257419   23.083524   22.500011 H          1 MOL1         0.0783
      73    O18     19.785649   24.900830   23.362737 O.3        1 MOL1        -0.5519
      74    H35     19.355399   24.295872   24.023066 H          1 MOL1         0.3769
      75    C22     21.054986   24.725713   21.276279 C.3        1 MOL1         0.1018
      76    H36     21.398091   25.740170   21.513498 H          1 MOL1         0.0783
      77    C23     22.222395   24.020830   20.537863 C.3        1 MOL1         0.1043
      78    H37     21.863089   23.048405   20.198780 H          1 MOL1         0.0783
      79    O19     23.342068   23.827381   21.440817 O.3        1 MOL1        -0.3740
      80    C24     22.718426   24.793607   19.289000 C.3        1 MOL1         0.0138
      81    H38     21.951648   24.720590   18.505912 H          1 MOL1         0.0794
      82    H39     23.620643   24.303364   18.901538 H          1 MOL1         0.0794
      83    O20     22.995236   26.171244   19.568001 O.3        1 MOL1        -0.5486
      84    H40     22.134617   26.617179   19.724731 H          1 MOL1         0.3769
      85    C25     24.208140   17.920882   21.595643 C.3        1 MOL1         0.2972
      86    H41     24.976512   17.171987   21.369497 H          1 MOL1         0.0751
      87    O21     22.914006   17.297117   21.724311 O.3        1 MOL1        -0.3740
      88    C26     24.579393   18.638460   22.920217 C.3        1 MOL1         0.1003
      89    H42     25.614926   18.986690   22.812502 H          1 MOL1         0.0783
      90    O22     24.507320   17.723134   24.022420 O.3        1 MOL1        -0.5519
      91    H43     23.675737   17.216195   23.895479 H          1 MOL1         0.3769
      92    C27     23.699494   19.878815   23.206383 C.3        1 MOL1         0.1053
      93    H44     22.691817   19.540169   23.479729 H          1 MOL1         0.0783
      94    O23     24.289313   20.597699   24.293591 O.3        1 MOL1        -0.5519
      95    H45     24.419131   19.933527   25.004963 H          1 MOL1         0.3769
      96    C28     23.582284   20.789439   21.959239 C.3        1 MOL1         0.1018
      97    H46     24.555924   21.264035   21.778235 H          1 MOL1         0.0783
      98    C29     23.188304   19.966842   20.703930 C.3        1 MOL1         0.1043
      99    H47     22.184903   19.559864   20.869753 H          1 MOL1         0.0783
     100    O24     24.133531   18.885695   20.525126 O.3        1 MOL1        -0.3740
     101    C30     23.164992   20.772918   19.381441 C.3        1 MOL1         0.0138
     102    H48     22.186131   21.255068   19.280403 H          1 MOL1         0.0794
     103    H49     23.252208   20.074030   18.539311 H          1 MOL1         0.0794
     104    O25     24.215323   21.744837   19.309417 O.3        1 MOL1        -0.5486
     105    H50     24.069717   22.395212   20.034409 H          1 MOL1         0.3769
     106    C31     21.095694   13.783791   20.247422 C.3        1 MOL1         0.2972
     107    H51     20.798655   12.950425   19.598669 H          1 MOL1         0.0751
     108    O26     20.358484   13.768323   21.484046 O.3        1 MOL1        -0.3740
     109    C32     22.600527   13.668542   20.598256 C.3        1 MOL1         0.1003
     110    H52     23.157775   13.660519   19.652343 H          1 MOL1         0.0783
     111    O27     22.852913   12.447628   21.309110 O.3        1 MOL1        -0.5519
     112    H53     22.166771   12.400879   22.012895 H          1 MOL1         0.3769
     113    C33     23.092249   14.877902   21.433937 C.3        1 MOL1         0.1053
     114    H54     22.628263   14.821177   22.428154 H          1 MOL1         0.0783
     115    O28     24.514992   14.788010   21.552972 O.3        1 MOL1        -0.5519
     116    H55     24.694726   13.860573   21.823622 H          1 MOL1         0.3769
     117    C34     22.672908   16.224869   20.783603 C.3        1 MOL1         0.1018
     118    H56     23.251359   16.366541   19.861058 H          1 MOL1         0.0783
     119    C35     21.162782   16.221067   20.427057 C.3        1 MOL1         0.1043
     120    H57     20.587336   16.156680   21.358527 H          1 MOL1         0.0783
     121    O29     20.886706   15.062157   19.603644 O.3        1 MOL1        -0.3740
     122    C36     20.669960   17.482204   19.676906 C.3        1 MOL1         0.0138
     123    H58     20.512411   18.283285   20.409173 H          1 MOL1         0.0794
     124    H59     19.692339   17.263993   19.229610 H          1 MOL1         0.0794
     125    O30     21.582946   17.917200   18.664208 O.3        1 MOL1        -0.5486
     126    H60     22.449237   18.082326   19.097026 H          1 MOL1         0.3769
     127    C1      18.579095   21.377118   24.653265 C.2        1 MOL1         0.6173
     128    O1      17.493021   21.035420   25.083787 O.co2      1 MOL1        -0.6755
     129    O2      18.949602   22.536300   24.612838 O.co2      1 MOL1        -0.6755
     130    C2      19.490610   20.345740   24.087732 C.2        1 MOL1        -0.1504
     131    H1      20.368904   20.714291   23.564049 H          1 MOL1         0.0814
     132    C3      19.258886   19.018926   24.198641 C.2        1 MOL1        -0.1394
     133    H2      18.398846   18.657112   24.759250 H          1 MOL1         0.0817
     134    C4      20.117611   17.943463   23.573861 C.3        1 MOL1        -0.1849
     135    H3      20.739676   18.383134   22.786022 H          1 MOL1         0.0736
     136    H4      19.469179   17.206525   23.083500 H          1 MOL1         0.0736
     137    C5      21.022297   17.227778   24.599458 C.3        1 MOL1        -0.1866
     138    H5      21.668856   16.516420   24.069949 H          1 MOL1         0.0738
     139    H6      21.680942   17.960198   25.085613 H          1 MOL1         0.0738
     140    C6      20.219550   16.463453   25.673286 C.3        1 MOL1        -0.2879
     141    H7      19.537948   15.736324   25.215349 H          1 MOL1         0.0750
     142    H8      20.895794   15.917946   26.343641 H          1 MOL1         0.0750
     143    H9      19.623142   17.151397   26.285963 H          1 MOL1         0.0750
@<TRIPOS>BOND
    1     1     2    1
    2     1     3    1
    3     1     4    1
    4     4     5    1
    5     4     6    1
    6     6     7    1
    7     4     8    1
    8     8     9    1
    9     8    10    1
   10    10    11    1
   11     8    12    1
   12    12    13    1
   13    12    14    1
   14    14    15    1
   15     1    16    1
   16    14    16    1
   17    14    17    1
   18    17    18    1
   19    17    19    1
   20    17    20    1
   21    20    21    1
   22    22    23    1
   23    22    24    1
   24    22    25    1
   25    25    26    1
   26    25    27    1
   27    27    28    1
   28    25    29    1
   29    29    30    1
   30    29    31    1
   31    31    32    1
   32     3    33    1
   33    29    33    1
   34    33    34    1
   35    33    35    1
   36    35    36    1
   37    22    37    1
   38    35    37    1
   39    35    38    1
   40    38    39    1
   41    38    40    1
   42    38    41    1
   43    41    42    1
   44    43    44    1
   45    43    45    1
   46    43    46    1
   47    46    47    1
   48    46    48    1
   49    48    49    1
   50    46    50    1
   51    50    51    1
   52    50    52    1
   53    52    53    1
   54    24    54    1
   55    50    54    1
   56    54    55    1
   57    54    56    1
   58    56    57    1
   59    43    58    1
   60    56    58    1
   61    56    59    1
   62    59    60    1
   63    59    61    1
   64    59    62    1
   65    62    63    1
   66    64    65    1
   67    64    66    1
   68    64    67    1
   69    67    68    1
   70    67    69    1
   71    69    70    1
   72    67    71    1
   73    71    72    1
   74    71    73    1
   75    73    74    1
   76    45    75    1
   77    71    75    1
   78    75    76    1
   79    75    77    1
   80    77    78    1
   81    64    79    1
   82    77    79    1
   83    77    80    1
   84    80    81    1
   85    80    82    1
   86    80    83    1
   87    83    84    1
   88    85    86    1
   89    85    87    1
   90    85    88    1
   91    88    89    1
   92    88    90    1
   93    90    91    1
   94    88    92    1
   95    92    93    1
   96    92    94    1
   97    94    95    1
   98    66    96    1
   99    92    96    1
  100    96    97    1
  101    96    98    1
  102    98    99    1
  103    85   100    1
  104    98   100    1
  105    98   101    1
  106   101   102    1
  107   101   103    1
  108   101   104    1
  109   104   105    1
  110   106   107    1
  111    12   108    1
  112   106   108    1
  113   106   109    1
  114   109   110    1
  115   109   111    1
  116   111   112    1
  117   109   113    1
  118   113   114    1
  119   113   115    1
  120   115   116    1
  121    87   117    1
  122   113   117    1
  123   117   118    1
  124   117   119    1
  125   119   120    1
  126   106   121    1
  127   119   121    1
  128   119   122    1
  129   122   123    1
  130   122   124    1
  131   122   125    1
  132   125   126    1
  133   127   128    1
  134   127   129    2
  135   127   130    1
  136   130   131    1
  137   130   132    2
  138   132   133    1
  139   132   134    1
  140   134   135    1
  141   134   136    1
  142   134   137    1
  143   137   138    1
  144   137   139    1
  145   137   140    1
  146   140   141    1
  147   140   142    1
  148   140   143    1
@<TRIPOS>SUBSTRUCTURE
       1 MOL1            1 RESIDUE      1      MOL     
       2 MOL1          143 RESIDUE      1      MOL     
@<SCITEGIC>MOL_PROPERTY
feprocess Rank
SciTegic.value.IntegerValue
194

@<SCITEGIC>MOL_PROPERTY
Conf_Id
SciTegic.value.IntegerValue
755

@<SCITEGIC>MOL_PROPERTY
Probability
SciTegic.value.DoubleValue
0.00

@<SCITEGIC>MOL_PROPERTY
G
SciTegic.value.DoubleValue
507.860

@<SCITEGIC>MOL_PROPERTY
E
SciTegic.value.DoubleValue
324.168

@<SCITEGIC>MOL_PROPERTY
-TS
SciTegic.value.DoubleValue
183.692

@<SCITEGIC>MOL_PROPERTY
U+W
SciTegic.value.DoubleValue
198.080

@<SCITEGIC>MOL_PROPERTY
U
SciTegic.value.DoubleValue
271.437

@<SCITEGIC>MOL_PROPERTY
W
SciTegic.value.DoubleValue
-73.357

@<SCITEGIC>MOL_PROPERTY
W(PB)
SciTegic.value.DoubleValue
-79.214

@<SCITEGIC>MOL_PROPERTY
W(SA)
SciTegic.value.DoubleValue
5.858

@<SCITEGIC>MOL_PROPERTY
Valence
SciTegic.value.DoubleValue
151.823

@<SCITEGIC>MOL_PROPERTY
Coulomb
SciTegic.value.DoubleValue
142.409

@<SCITEGIC>MOL_PROPERTY
VdW
SciTegic.value.DoubleValue
-22.795

@<SCITEGIC>MOL_PROPERTY
VdW6
SciTegic.value.DoubleValue
-187.285

@<SCITEGIC>MOL_PROPERTY
VdW12
SciTegic.value.DoubleValue
164.489

@<SCITEGIC>MOL_PROPERTY
Bond
SciTegic.value.DoubleValue
5.807

@<SCITEGIC>MOL_PROPERTY
Angle
SciTegic.value.DoubleValue
20.751

@<SCITEGIC>MOL_PROPERTY
Pdih
SciTegic.value.DoubleValue
125.258

@<SCITEGIC>MOL_PROPERTY
Idih
SciTegic.value.DoubleValue
0.006

@<SCITEGIC>MOL_PROPERTY
Tether
SciTegic.value.DoubleValue
0.000

@<TRIPOS>MOLECULE
CD_guest-s19_fast_vm2_rndm.mol2 : feprocess host+ligand conformer 195
         143         148           2
SMALL
USER_CHARGES
 
@<TRIPOS>ATOM
       1    C1      15.976626   15.416963   20.091677 C.3        1 MOL1         0.2972
       2    H1      15.111880   15.283886   19.429707 H          1 MOL1         0.0751
       3    O1      15.589066   16.037193   21.332191 O.3        1 MOL1        -0.3740
       4    C2      16.600567   14.037799   20.426615 C.3        1 MOL1         0.1003
       5    H2      16.863669   13.558795   19.474427 H          1 MOL1         0.0783
       6    O2      15.650256   13.218654   21.123253 O.3        1 MOL1        -0.5519
       7    H3      15.272437   13.789123   21.830448 H          1 MOL1         0.3769
       8    C3      17.896524   14.174390   21.266633 C.3        1 MOL1         0.1053
       9    H4      17.622033   14.530740   22.268746 H          1 MOL1         0.0783
      10    O3      18.509789   12.885103   21.357694 O.3        1 MOL1        -0.5519
      11    H5      17.788952   12.272201   21.622692 H          1 MOL1         0.3769
      12    C4      18.872417   15.206082   20.639168 C.3        1 MOL1         0.1018
      13    H6      19.269517   14.790807   19.703253 H          1 MOL1         0.0783
      14    C5      18.138456   16.533050   20.315331 C.3        1 MOL1         0.1043
      15    H7      17.792348   16.976020   21.256139 H          1 MOL1         0.0783
      16    O4      16.999962   16.231119   19.473667 O.3        1 MOL1        -0.3740
      17    C6      19.005373   17.598362   19.602360 C.3        1 MOL1         0.0138
      18    H8      19.621444   18.105237   20.355032 H          1 MOL1         0.0794
      19    H9      18.342049   18.357924   19.170403 H          1 MOL1         0.0794
      20    O5      19.838087   17.040534   18.580913 O.3        1 MOL1        -0.5486
      21    H10     20.412995   16.364296   19.003278 H          1 MOL1         0.3769
      22    C7      14.448860   19.986779   21.892826 C.3        1 MOL1         0.2972
      23    H11     13.934260   20.945732   22.035208 H          1 MOL1         0.0751
      24    O6      15.882254   20.137457   21.923250 O.3        1 MOL1        -0.3740
      25    C8      14.010723   19.002149   22.996240 C.3        1 MOL1         0.1003
      26    H12     12.926550   18.859687   22.898695 H          1 MOL1         0.0783
      27    O7      14.303360   19.537330   24.297026 O.3        1 MOL1        -0.5519
      28    H13     15.043967   20.185041   24.185604 H          1 MOL1         0.3769
      29    C9      14.688453   17.628752   22.811731 C.3        1 MOL1         0.1053
      30    H14     15.755978   17.759467   23.032688 H          1 MOL1         0.0783
      31    O8      14.113426   16.709076   23.745923 O.3        1 MOL1        -0.5519
      32    H15     14.125481   17.182135   24.607170 H          1 MOL1         0.3769
      33    C10     14.571334   17.074620   21.363313 C.3        1 MOL1         0.1018
      34    H16     13.575355   16.631414   21.239663 H          1 MOL1         0.0783
      35    C11     14.783483   18.181838   20.267702 C.3        1 MOL1         0.1043
      36    H17     15.857024   18.390103   20.195568 H          1 MOL1         0.0783
      37    O9      14.094498   19.406657   20.628091 O.3        1 MOL1        -0.3740
      38    C12     14.267665   17.826472   18.846640 C.3        1 MOL1         0.0138
      39    H18     14.992182   17.182230   18.336035 H          1 MOL1         0.0794
      40    H19     14.213324   18.752577   18.258225 H          1 MOL1         0.0794
      41    O10     12.984299   17.191299   18.876343 O.3        1 MOL1        -0.5486
      42    H20     12.680962   17.086505   17.948008 H          1 MOL1         0.3769
      43    C13     18.659196   23.296475   21.670434 C.3        1 MOL1         0.2972
      44    H21     19.042911   24.314066   21.526511 H          1 MOL1         0.0751
      45    O11     19.746825   22.362439   21.832791 O.3        1 MOL1        -0.3740
      46    C14     17.729213   23.275120   22.914653 C.3        1 MOL1         0.1003
      47    H22     16.948904   24.024545   22.729424 H          1 MOL1         0.0783
      48    O12     18.424157   23.638305   24.119685 O.3        1 MOL1        -0.5519
      49    H23     19.162942   22.990525   24.280305 H          1 MOL1         0.3769
      50    C15     17.022882   21.912076   23.076434 C.3        1 MOL1         0.1053
      51    H24     17.781571   21.163983   23.315795 H          1 MOL1         0.0783
      52    O13     16.052732   21.992944   24.126083 O.3        1 MOL1        -0.5519
      53    H25     16.513588   22.452693   24.863239 H          1 MOL1         0.3769
      54    C16     16.347282   21.490049   21.754773 C.3        1 MOL1         0.1018
      55    H26     15.524973   22.186985   21.544783 H          1 MOL1         0.0783
      56    C17     17.352430   21.539187   20.575502 C.3        1 MOL1         0.1043
      57    H27     18.157837   20.820257   20.774897 H          1 MOL1         0.0783
      58    O14     17.901009   22.879454   20.508670 O.3        1 MOL1        -0.3740
      59    C18     16.745117   21.183693   19.193590 C.3        1 MOL1         0.0138
      60    H28     16.780790   20.095261   19.064920 H          1 MOL1         0.0794
      61    H29     17.380591   21.617859   18.410327 H          1 MOL1         0.0794
      62    O15     15.395238   21.636203   19.037443 O.3        1 MOL1        -0.5486
      63    H30     14.820892   21.015441   19.543186 H          1 MOL1         0.3769
      64    C19     23.672985   22.134302   20.236622 C.3        1 MOL1         0.2972
      65    H31     23.633383   22.242146   19.146014 H          1 MOL1         0.0751
      66    O16     25.058453   21.868857   20.612606 O.3        1 MOL1        -0.3740
      67    C20     23.238394   23.493751   20.879210 C.3        1 MOL1         0.1003
      68    H32     23.061564   24.186210   20.045989 H          1 MOL1         0.0783
      69    O17     24.238681   24.060728   21.745894 O.3        1 MOL1        -0.5519
      70    H33     24.651775   23.300901   22.227057 H          1 MOL1         0.3769
      71    C21     21.921368   23.397616   21.680094 C.3        1 MOL1         0.1053
      72    H34     22.129023   22.880359   22.626311 H          1 MOL1         0.0783
      73    O18     21.466731   24.730728   21.937122 O.3        1 MOL1        -0.5519
      74    H35     22.236625   25.186359   22.343399 H          1 MOL1         0.3769
      75    C22     20.844247   22.590556   20.918760 C.3        1 MOL1         0.1018
      76    H36     20.513834   23.180780   20.054508 H          1 MOL1         0.0783
      77    C23     21.364650   21.209890   20.423310 C.3        1 MOL1         0.1043
      78    H37     20.877699   20.437697   21.033831 H          1 MOL1         0.0783
      79    O19     22.790401   21.056332   20.628059 O.3        1 MOL1        -0.3740
      80    C24     21.008939   20.893941   18.947893 C.3        1 MOL1         0.0138
      81    H38     19.924773   20.737567   18.871557 H          1 MOL1         0.0794
      82    H39     21.489028   19.946501   18.669967 H          1 MOL1         0.0794
      83    O20     21.416526   21.929904   18.045286 O.3        1 MOL1        -0.5486
      84    H40     20.667215   22.554342   17.939228 H          1 MOL1         0.3769
      85    C25     24.977900   18.163875   22.717255 C.3        1 MOL1         0.2972
      86    H41     25.308448   17.291333   23.294791 H          1 MOL1         0.0751
      87    O21     23.621767   17.978308   22.247773 O.3        1 MOL1        -0.3740
      88    C26     25.094481   19.433829   23.609102 C.3        1 MOL1         0.1003
      89    H42     26.150823   19.528463   23.891571 H          1 MOL1         0.0783
      90    O22     24.311988   19.292703   24.805237 O.3        1 MOL1        -0.5519
      91    H43     23.683687   20.058009   24.842823 H          1 MOL1         0.3769
      92    C27     24.705168   20.710552   22.827704 C.3        1 MOL1         0.1053
      93    H44     23.630570   20.635413   22.656081 H          1 MOL1         0.0783
      94    O23     24.979144   21.881900   23.604445 O.3        1 MOL1        -0.5519
      95    H45     24.223391   21.950963   24.246038 H          1 MOL1         0.3769
      96    C28     25.484268   20.778803   21.482523 C.3        1 MOL1         0.1018
      97    H46     26.530356   20.965257   21.754695 H          1 MOL1         0.0783
      98    C29     25.461574   19.448920   20.686601 C.3        1 MOL1         0.1043
      99    H47     24.447086   19.301618   20.315079 H          1 MOL1         0.0783
     100    O24     25.818654   18.341200   21.552828 O.3        1 MOL1        -0.3740
     101    C30     26.410916   19.447999   19.460938 C.3        1 MOL1         0.0138
     102    H48     25.990020   20.110909   18.692878 H          1 MOL1         0.0794
     103    H49     26.439591   18.438047   19.032560 H          1 MOL1         0.0794
     104    O25     27.738408   19.872917   19.791925 O.3        1 MOL1        -0.5486
     105    H50     27.698156   20.834351   19.987237 H          1 MOL1         0.3769
     106    C31     21.114019   14.675688   21.386341 C.3        1 MOL1         0.2972
     107    H51     20.837357   13.658459   21.082978 H          1 MOL1         0.0751
     108    O26     19.934035   15.482618   21.582888 O.3        1 MOL1        -0.3740
     109    C32     21.933327   14.601583   22.700714 C.3        1 MOL1         0.1003
     110    H52     22.751507   13.891480   22.523152 H          1 MOL1         0.0783
     111    O27     21.115495   14.109254   23.771190 O.3        1 MOL1        -0.5519
     112    H53     20.254397   14.576223   23.689383 H          1 MOL1         0.3769
     113    C33     22.572732   15.954982   23.095235 C.3        1 MOL1         0.1053
     114    H54     21.780446   16.635076   23.431629 H          1 MOL1         0.0783
     115    O28     23.496151   15.712397   24.160742 O.3        1 MOL1        -0.5519
     116    H55     22.989194   15.208497   24.834031 H          1 MOL1         0.3769
     117    C34     23.295786   16.612981   21.893046 C.3        1 MOL1         0.1018
     118    H56     24.198741   16.030646   21.666554 H          1 MOL1         0.0783
     119    C35     22.386459   16.634427   20.635010 C.3        1 MOL1         0.1043
     120    H57     21.536570   17.291978   20.847541 H          1 MOL1         0.0783
     121    O29     21.912349   15.295378   20.356717 O.3        1 MOL1        -0.3740
     122    C36     23.077474   17.146666   19.346848 C.3        1 MOL1         0.0138
     123    H58     23.018574   18.240604   19.327382 H          1 MOL1         0.0794
     124    H59     22.511660   16.792457   18.475436 H          1 MOL1         0.0794
     125    O30     24.438972   16.712789   19.242435 O.3        1 MOL1        -0.5486
     126    H60     24.931803   17.092360   20.005312 H          1 MOL1         0.3769
     127    C1      21.302600   21.233674   24.789474 C.2        1 MOL1         0.6173
     128    O1      22.496476   21.472995   24.804109 O.co2      1 MOL1        -0.6755
     129    O2      20.461906   21.981664   25.253827 O.co2      1 MOL1        -0.6755
     130    C2      20.862479   19.989496   24.103349 C.2        1 MOL1        -0.1504
     131    H1      21.624240   19.451371   23.545070 H          1 MOL1         0.0814
     132    C3      19.591147   19.534657   24.149949 C.2        1 MOL1        -0.1394
     133    H2      18.844082   20.052088   24.749338 H          1 MOL1         0.0817
     134    C4      19.091810   18.320128   23.402393 C.3        1 MOL1        -0.1849
     135    H3      19.924644   17.804134   22.911852 H          1 MOL1         0.0736
     136    H4      18.419537   18.658755   22.604818 H          1 MOL1         0.0736
     137    C5      18.329363   17.334467   24.313523 C.3        1 MOL1        -0.1866
     138    H5      17.453175   17.836374   24.746451 H          1 MOL1         0.0738
     139    H6      17.947197   16.503100   23.706825 H          1 MOL1         0.0738
     140    C6      19.208810   16.772356   25.449776 C.3        1 MOL1        -0.2879
     141    H7      19.521669   17.570213   26.135649 H          1 MOL1         0.0750
     142    H8      18.655975   16.024896   26.032839 H          1 MOL1         0.0750
     143    H9      20.112138   16.296136   25.054047 H          1 MOL1         0.0750
@<TRIPOS>BOND
    1     1     2    1
    2     1     3    1
    3     1     4    1
    4     4     5    1
    5     4     6    1
    6     6     7    1
    7     4     8    1
    8     8     9    1
    9     8    10    1
   10    10    11    1
   11     8    12    1
   12    12    13    1
   13    12    14    1
   14    14    15    1
   15     1    16    1
   16    14    16    1
   17    14    17    1
   18    17    18    1
   19    17    19    1
   20    17    20    1
   21    20    21    1
   22    22    23    1
   23    22    24    1
   24    22    25    1
   25    25    26    1
   26    25    27    1
   27    27    28    1
   28    25    29    1
   29    29    30    1
   30    29    31    1
   31    31    32    1
   32     3    33    1
   33    29    33    1
   34    33    34    1
   35    33    35    1
   36    35    36    1
   37    22    37    1
   38    35    37    1
   39    35    38    1
   40    38    39    1
   41    38    40    1
   42    38    41    1
   43    41    42    1
   44    43    44    1
   45    43    45    1
   46    43    46    1
   47    46    47    1
   48    46    48    1
   49    48    49    1
   50    46    50    1
   51    50    51    1
   52    50    52    1
   53    52    53    1
   54    24    54    1
   55    50    54    1
   56    54    55    1
   57    54    56    1
   58    56    57    1
   59    43    58    1
   60    56    58    1
   61    56    59    1
   62    59    60    1
   63    59    61    1
   64    59    62    1
   65    62    63    1
   66    64    65    1
   67    64    66    1
   68    64    67    1
   69    67    68    1
   70    67    69    1
   71    69    70    1
   72    67    71    1
   73    71    72    1
   74    71    73    1
   75    73    74    1
   76    45    75    1
   77    71    75    1
   78    75    76    1
   79    75    77    1
   80    77    78    1
   81    64    79    1
   82    77    79    1
   83    77    80    1
   84    80    81    1
   85    80    82    1
   86    80    83    1
   87    83    84    1
   88    85    86    1
   89    85    87    1
   90    85    88    1
   91    88    89    1
   92    88    90    1
   93    90    91    1
   94    88    92    1
   95    92    93    1
   96    92    94    1
   97    94    95    1
   98    66    96    1
   99    92    96    1
  100    96    97    1
  101    96    98    1
  102    98    99    1
  103    85   100    1
  104    98   100    1
  105    98   101    1
  106   101   102    1
  107   101   103    1
  108   101   104    1
  109   104   105    1
  110   106   107    1
  111    12   108    1
  112   106   108    1
  113   106   109    1
  114   109   110    1
  115   109   111    1
  116   111   112    1
  117   109   113    1
  118   113   114    1
  119   113   115    1
  120   115   116    1
  121    87   117    1
  122   113   117    1
  123   117   118    1
  124   117   119    1
  125   119   120    1
  126   106   121    1
  127   119   121    1
  128   119   122    1
  129   122   123    1
  130   122   124    1
  131   122   125    1
  132   125   126    1
  133   127   128    1
  134   127   129    2
  135   127   130    1
  136   130   131    1
  137   130   132    2
  138   132   133    1
  139   132   134    1
  140   134   135    1
  141   134   136    1
  142   134   137    1
  143   137   138    1
  144   137   139    1
  145   137   140    1
  146   140   141    1
  147   140   142    1
  148   140   143    1
@<TRIPOS>SUBSTRUCTURE
       1 MOL1            1 RESIDUE      1      MOL     
       2 MOL1          143 RESIDUE      1      MOL     
@<SCITEGIC>MOL_PROPERTY
feprocess Rank
SciTegic.value.IntegerValue
195

@<SCITEGIC>MOL_PROPERTY
Conf_Id
SciTegic.value.IntegerValue
572

@<SCITEGIC>MOL_PROPERTY
Probability
SciTegic.value.DoubleValue
0.00

@<SCITEGIC>MOL_PROPERTY
G
SciTegic.value.DoubleValue
508.193

@<SCITEGIC>MOL_PROPERTY
E
SciTegic.value.DoubleValue
324.484

@<SCITEGIC>MOL_PROPERTY
-TS
SciTegic.value.DoubleValue
183.709

@<SCITEGIC>MOL_PROPERTY
U+W
SciTegic.value.DoubleValue
198.396

@<SCITEGIC>MOL_PROPERTY
U
SciTegic.value.DoubleValue
271.802

@<SCITEGIC>MOL_PROPERTY
W
SciTegic.value.DoubleValue
-73.406

@<SCITEGIC>MOL_PROPERTY
W(PB)
SciTegic.value.DoubleValue
-79.267

@<SCITEGIC>MOL_PROPERTY
W(SA)
SciTegic.value.DoubleValue
5.861

@<SCITEGIC>MOL_PROPERTY
Valence
SciTegic.value.DoubleValue
152.023

@<SCITEGIC>MOL_PROPERTY
Coulomb
SciTegic.value.DoubleValue
142.731

@<SCITEGIC>MOL_PROPERTY
VdW
SciTegic.value.DoubleValue
-22.952

@<SCITEGIC>MOL_PROPERTY
VdW6
SciTegic.value.DoubleValue
-187.493

@<SCITEGIC>MOL_PROPERTY
VdW12
SciTegic.value.DoubleValue
164.541

@<SCITEGIC>MOL_PROPERTY
Bond
SciTegic.value.DoubleValue
5.856

@<SCITEGIC>MOL_PROPERTY
Angle
SciTegic.value.DoubleValue
20.653

@<SCITEGIC>MOL_PROPERTY
Pdih
SciTegic.value.DoubleValue
125.506

@<SCITEGIC>MOL_PROPERTY
Idih
SciTegic.value.DoubleValue
0.007

@<SCITEGIC>MOL_PROPERTY
Tether
SciTegic.value.DoubleValue
0.000

@<TRIPOS>MOLECULE
CD_guest-s19_fast_vm2_rndm.mol2 : feprocess host+ligand conformer 196
         143         148           2
SMALL
USER_CHARGES
 
@<TRIPOS>ATOM
       1    C1      16.092387   14.848404   21.851599 C.3        1 MOL1         0.2972
       2    H1      15.066826   14.576315   22.131373 H          1 MOL1         0.0751
       3    O1      16.331155   16.263093   22.009866 O.3        1 MOL1        -0.3740
       4    C2      17.107139   14.080280   22.733456 C.3        1 MOL1         0.1003
       5    H2      17.048019   13.020653   22.453448 H          1 MOL1         0.0783
       6    O2      16.782291   14.200508   24.126455 O.3        1 MOL1        -0.5519
       7    H3      17.092917   15.091422   24.437345 H          1 MOL1         0.3769
       8    C3      18.535331   14.581202   22.408971 C.3        1 MOL1         0.1053
       9    H4      18.582930   15.654882   22.626967 H          1 MOL1         0.0783
      10    O3      19.518047   13.906954   23.201750 O.3        1 MOL1        -0.5519
      11    H5      19.595970   14.466786   24.019710 H          1 MOL1         0.3769
      12    C4      18.845546   14.415825   20.901675 C.3        1 MOL1         0.1018
      13    H6      19.104504   13.367852   20.705608 H          1 MOL1         0.0783
      14    C5      17.677612   14.879227   19.977602 C.3        1 MOL1         0.1043
      15    H7      17.711001   15.975911   19.946689 H          1 MOL1         0.0783
      16    O4      16.377414   14.475401   20.487261 O.3        1 MOL1        -0.3740
      17    C6      17.804681   14.376539   18.518466 C.3        1 MOL1         0.0138
      18    H8      18.689030   14.837941   18.058893 H          1 MOL1         0.0794
      19    H9      16.930473   14.725324   17.953251 H          1 MOL1         0.0794
      20    O5      17.893298   12.948090   18.435052 O.3        1 MOL1        -0.5486
      21    H10     18.751786   12.665795   18.812537 H          1 MOL1         0.3769
      22    C7      14.803440   20.068636   21.567081 C.3        1 MOL1         0.2972
      23    H11     14.187052   20.968995   21.445773 H          1 MOL1         0.0751
      24    O6      16.212432   20.380607   21.529682 O.3        1 MOL1        -0.3740
      25    C8      14.482538   19.396099   22.921852 C.3        1 MOL1         0.1003
      26    H12     13.423515   19.108388   22.913032 H          1 MOL1         0.0783
      27    O7      14.712151   20.331234   23.989432 O.3        1 MOL1        -0.5519
      28    H13     15.280992   21.052207   23.625137 H          1 MOL1         0.3769
      29    C9      15.326558   18.109811   23.096142 C.3        1 MOL1         0.1053
      30    H14     16.374506   18.417331   23.183767 H          1 MOL1         0.0783
      31    O8      14.933228   17.401059   24.277990 O.3        1 MOL1        -0.5519
      32    H15     15.770607   17.032771   24.663799 H          1 MOL1         0.3769
      33    C10     15.217146   17.166250   21.868490 C.3        1 MOL1         0.1018
      34    H16     14.252121   16.645399   21.915978 H          1 MOL1         0.0783
      35    C11     15.360881   17.928583   20.513410 C.3        1 MOL1         0.1043
      36    H17     16.411922   18.226213   20.415355 H          1 MOL1         0.0783
      37    O9      14.531722   19.118751   20.517348 O.3        1 MOL1        -0.3740
      38    C12     14.998861   17.121184   19.238473 C.3        1 MOL1         0.0138
      39    H18     15.913825   16.682789   18.825441 H          1 MOL1         0.0794
      40    H19     14.621955   17.818809   18.478402 H          1 MOL1         0.0794
      41    O10     14.033612   16.090438   19.470156 O.3        1 MOL1        -0.5486
      42    H20     14.532569   15.311604   19.808405 H          1 MOL1         0.3769
      43    C13     18.664657   23.640121   20.532323 C.3        1 MOL1         0.2972
      44    H21     19.010820   24.581527   20.087010 H          1 MOL1         0.0751
      45    O11     19.717659   22.981876   21.261205 O.3        1 MOL1        -0.3740
      46    C14     17.510374   23.931967   21.525418 C.3        1 MOL1         0.1003
      47    H22     16.720332   24.450381   20.966716 H          1 MOL1         0.0783
      48    O12     17.966651   24.778921   22.592337 O.3        1 MOL1        -0.5519
      49    H23     18.938225   24.619204   22.691779 H          1 MOL1         0.3769
      50    C15     16.909873   22.623838   22.092922 C.3        1 MOL1         0.1053
      51    H24     17.664086   22.144868   22.730721 H          1 MOL1         0.0783
      52    O13     15.746256   22.932525   22.865725 O.3        1 MOL1        -0.5519
      53    H25     16.009150   23.699187   23.423083 H          1 MOL1         0.3769
      54    C16     16.549574   21.651294   20.944508 C.3        1 MOL1         0.1018
      55    H26     15.711551   22.071880   20.372713 H          1 MOL1         0.0783
      56    C17     17.750419   21.438811   19.984912 C.3        1 MOL1         0.1043
      57    H27     18.561538   20.957502   20.545736 H          1 MOL1         0.0783
      58    O14     18.195919   22.733760   19.507361 O.3        1 MOL1        -0.3740
      59    C18     17.443116   20.531871   18.764699 C.3        1 MOL1         0.0138
      60    H28     17.641933   19.490847   19.048724 H          1 MOL1         0.0794
      61    H29     18.144658   20.779551   17.956904 H          1 MOL1         0.0794
      62    O15     16.093451   20.650758   18.297690 O.3        1 MOL1        -0.5486
      63    H30     15.509400   20.249587   18.981932 H          1 MOL1         0.3769
      64    C19     23.899866   22.889943   21.516342 C.3        1 MOL1         0.2972
      65    H31     24.968301   23.091944   21.366776 H          1 MOL1         0.0751
      66    O16     23.700074   21.785288   22.419798 O.3        1 MOL1        -0.3740
      67    C20     23.205279   24.126651   22.143416 C.3        1 MOL1         0.1003
      68    H32     23.359032   24.976685   21.466010 H          1 MOL1         0.0783
      69    O17     23.781003   24.422318   23.424407 O.3        1 MOL1        -0.5519
      70    H33     23.815729   23.565495   23.908056 H          1 MOL1         0.3769
      71    C21     21.682337   23.892117   22.291386 C.3        1 MOL1         0.1053
      72    H34     21.536174   23.101747   23.037393 H          1 MOL1         0.0783
      73    O18     21.045983   25.098177   22.727355 O.3        1 MOL1        -0.5519
      74    H35     21.598201   25.427375   23.470591 H          1 MOL1         0.3769
      75    C22     21.056743   23.417845   20.959534 C.3        1 MOL1         0.1018
      76    H36     21.070615   24.259210   20.254332 H          1 MOL1         0.0783
      77    C23     21.843506   22.226527   20.351147 C.3        1 MOL1         0.1043
      78    H37     21.738563   21.362968   21.018769 H          1 MOL1         0.0783
      79    O19     23.241304   22.593539   20.261737 O.3        1 MOL1        -0.3740
      80    C24     21.360344   21.776961   18.947836 C.3        1 MOL1         0.0138
      81    H38     20.551564   21.046542   19.076873 H          1 MOL1         0.0794
      82    H39     22.185894   21.256498   18.444117 H          1 MOL1         0.0794
      83    O20     20.897267   22.858594   18.132730 O.3        1 MOL1        -0.5486
      84    H40     19.961441   23.026029   18.389915 H          1 MOL1         0.3769
      85    C25     24.721507   17.796874   22.352876 C.3        1 MOL1         0.2972
      86    H41     25.206122   16.813494   22.396292 H          1 MOL1         0.0751
      87    O21     23.335674   17.672633   21.964445 O.3        1 MOL1        -0.3740
      88    C26     24.828393   18.475036   23.735680 C.3        1 MOL1         0.1003
      89    H42     25.895992   18.572705   23.972200 H          1 MOL1         0.0783
      90    O22     24.191329   17.671640   24.740143 O.3        1 MOL1        -0.5519
      91    H43     23.356294   17.339945   24.341352 H          1 MOL1         0.3769
      92    C27     24.215288   19.889238   23.715609 C.3        1 MOL1         0.1053
      93    H44     23.128870   19.772534   23.610714 H          1 MOL1         0.0783
      94    O23     24.512130   20.534112   24.958755 O.3        1 MOL1        -0.5519
      95    H45     24.236535   19.896194   25.652324 H          1 MOL1         0.3769
      96    C28     24.721065   20.763539   22.535995 C.3        1 MOL1         0.1018
      97    H46     25.684057   21.206031   22.820652 H          1 MOL1         0.0783
      98    C29     24.871184   19.974656   21.192226 C.3        1 MOL1         0.1043
      99    H47     23.874313   19.901880   20.751082 H          1 MOL1         0.0783
     100    O24     25.394804   18.636860   21.397992 O.3        1 MOL1        -0.3740
     101    C30     25.813468   20.631742   20.147794 C.3        1 MOL1         0.0138
     102    H48     25.309115   21.476048   19.666318 H          1 MOL1         0.0794
     103    H49     26.014724   19.899930   19.353798 H          1 MOL1         0.0794
     104    O25     27.046185   21.069987   20.731104 O.3        1 MOL1        -0.5486
     105    H50     27.624273   21.388441   20.003661 H          1 MOL1         0.3769
     106    C31     21.042251   14.831663   19.851247 C.3        1 MOL1         0.2972
     107    H51     20.713065   14.087725   19.115523 H          1 MOL1         0.0751
     108    O26     19.941206   15.313382   20.642193 O.3        1 MOL1        -0.3740
     109    C32     22.144333   14.252814   20.779772 C.3        1 MOL1         0.1003
     110    H52     22.982827   13.965367   20.132014 H          1 MOL1         0.0783
     111    O27     21.692399   13.086353   21.484280 O.3        1 MOL1        -0.5519
     112    H53     20.954290   13.373809   22.079433 H          1 MOL1         0.3769
     113    C33     22.665540   15.326471   21.769871 C.3        1 MOL1         0.1053
     114    H54     21.855661   15.583182   22.467815 H          1 MOL1         0.0783
     115    O28     23.778028   14.779725   22.484437 O.3        1 MOL1        -0.5519
     116    H55     23.482751   13.891738   22.784272 H          1 MOL1         0.3769
     117    C34     23.085860   16.614683   21.009210 C.3        1 MOL1         0.1018
     118    H56     23.986979   16.390077   20.423198 H          1 MOL1         0.0783
     119    C35     21.971908   17.084855   20.034495 C.3        1 MOL1         0.1043
     120    H57     21.104386   17.406444   20.626440 H          1 MOL1         0.0783
     121    O29     21.601067   15.977452   19.176423 O.3        1 MOL1        -0.3740
     122    C36     22.369733   18.274456   19.129760 C.3        1 MOL1         0.0138
     123    H58     22.223576   19.196570   19.702278 H          1 MOL1         0.0794
     124    H59     21.676635   18.316704   18.278976 H          1 MOL1         0.0794
     125    O30     23.721527   18.193953   18.659692 O.3        1 MOL1        -0.5486
     126    H60     24.311241   18.190605   19.446352 H          1 MOL1         0.3769
     127    C1      18.668625   17.007203   24.908693 C.2        1 MOL1         0.6173
     128    O1      17.537609   16.660701   25.195869 O.co2      1 MOL1        -0.6755
     129    O2      19.607940   16.232606   24.874539 O.co2      1 MOL1        -0.6755
     130    C2      18.843345   18.412914   24.458526 C.2        1 MOL1        -0.1504
     131    H1      17.956680   19.037507   24.522177 H          1 MOL1         0.0814
     132    C3      19.994201   18.932129   23.976481 C.2        1 MOL1        -0.1394
     133    H2      20.896363   18.326549   23.897436 H          1 MOL1         0.0817
     134    C4      20.098918   20.359610   23.481724 C.3        1 MOL1        -0.1849
     135    H3      19.347750   20.516679   22.698966 H          1 MOL1         0.0736
     136    H4      21.073317   20.525844   23.009386 H          1 MOL1         0.0736
     137    C5      19.881048   21.399638   24.603758 C.3        1 MOL1        -0.1866
     138    H5      19.735539   22.392340   24.158861 H          1 MOL1         0.0738
     139    H6      18.956494   21.174284   25.151857 H          1 MOL1         0.0738
     140    C6      21.069228   21.453208   25.585386 C.3        1 MOL1        -0.2879
     141    H7      21.993861   21.733440   25.065504 H          1 MOL1         0.0750
     142    H8      20.886467   22.194271   26.373715 H          1 MOL1         0.0750
     143    H9      21.227784   20.478681   26.064938 H          1 MOL1         0.0750
@<TRIPOS>BOND
    1     1     2    1
    2     1     3    1
    3     1     4    1
    4     4     5    1
    5     4     6    1
    6     6     7    1
    7     4     8    1
    8     8     9    1
    9     8    10    1
   10    10    11    1
   11     8    12    1
   12    12    13    1
   13    12    14    1
   14    14    15    1
   15     1    16    1
   16    14    16    1
   17    14    17    1
   18    17    18    1
   19    17    19    1
   20    17    20    1
   21    20    21    1
   22    22    23    1
   23    22    24    1
   24    22    25    1
   25    25    26    1
   26    25    27    1
   27    27    28    1
   28    25    29    1
   29    29    30    1
   30    29    31    1
   31    31    32    1
   32     3    33    1
   33    29    33    1
   34    33    34    1
   35    33    35    1
   36    35    36    1
   37    22    37    1
   38    35    37    1
   39    35    38    1
   40    38    39    1
   41    38    40    1
   42    38    41    1
   43    41    42    1
   44    43    44    1
   45    43    45    1
   46    43    46    1
   47    46    47    1
   48    46    48    1
   49    48    49    1
   50    46    50    1
   51    50    51    1
   52    50    52    1
   53    52    53    1
   54    24    54    1
   55    50    54    1
   56    54    55    1
   57    54    56    1
   58    56    57    1
   59    43    58    1
   60    56    58    1
   61    56    59    1
   62    59    60    1
   63    59    61    1
   64    59    62    1
   65    62    63    1
   66    64    65    1
   67    64    66    1
   68    64    67    1
   69    67    68    1
   70    67    69    1
   71    69    70    1
   72    67    71    1
   73    71    72    1
   74    71    73    1
   75    73    74    1
   76    45    75    1
   77    71    75    1
   78    75    76    1
   79    75    77    1
   80    77    78    1
   81    64    79    1
   82    77    79    1
   83    77    80    1
   84    80    81    1
   85    80    82    1
   86    80    83    1
   87    83    84    1
   88    85    86    1
   89    85    87    1
   90    85    88    1
   91    88    89    1
   92    88    90    1
   93    90    91    1
   94    88    92    1
   95    92    93    1
   96    92    94    1
   97    94    95    1
   98    66    96    1
   99    92    96    1
  100    96    97    1
  101    96    98    1
  102    98    99    1
  103    85   100    1
  104    98   100    1
  105    98   101    1
  106   101   102    1
  107   101   103    1
  108   101   104    1
  109   104   105    1
  110   106   107    1
  111    12   108    1
  112   106   108    1
  113   106   109    1
  114   109   110    1
  115   109   111    1
  116   111   112    1
  117   109   113    1
  118   113   114    1
  119   113   115    1
  120   115   116    1
  121    87   117    1
  122   113   117    1
  123   117   118    1
  124   117   119    1
  125   119   120    1
  126   106   121    1
  127   119   121    1
  128   119   122    1
  129   122   123    1
  130   122   124    1
  131   122   125    1
  132   125   126    1
  133   127   128    1
  134   127   129    2
  135   127   130    1
  136   130   131    1
  137   130   132    2
  138   132   133    1
  139   132   134    1
  140   134   135    1
  141   134   136    1
  142   134   137    1
  143   137   138    1
  144   137   139    1
  145   137   140    1
  146   140   141    1
  147   140   142    1
  148   140   143    1
@<TRIPOS>SUBSTRUCTURE
       1 MOL1            1 RESIDUE      1      MOL     
       2 MOL1          143 RESIDUE      1      MOL     
@<SCITEGIC>MOL_PROPERTY
feprocess Rank
SciTegic.value.IntegerValue
196

@<SCITEGIC>MOL_PROPERTY
Conf_Id
SciTegic.value.IntegerValue
175

@<SCITEGIC>MOL_PROPERTY
Probability
SciTegic.value.DoubleValue
0.00

@<SCITEGIC>MOL_PROPERTY
G
SciTegic.value.DoubleValue
508.265

@<SCITEGIC>MOL_PROPERTY
E
SciTegic.value.DoubleValue
324.692

@<SCITEGIC>MOL_PROPERTY
-TS
SciTegic.value.DoubleValue
183.573

@<SCITEGIC>MOL_PROPERTY
U+W
SciTegic.value.DoubleValue
198.604

@<SCITEGIC>MOL_PROPERTY
U
SciTegic.value.DoubleValue
270.929

@<SCITEGIC>MOL_PROPERTY
W
SciTegic.value.DoubleValue
-72.325

@<SCITEGIC>MOL_PROPERTY
W(PB)
SciTegic.value.DoubleValue
-78.196

@<SCITEGIC>MOL_PROPERTY
W(SA)
SciTegic.value.DoubleValue
5.871

@<SCITEGIC>MOL_PROPERTY
Valence
SciTegic.value.DoubleValue
151.688

@<SCITEGIC>MOL_PROPERTY
Coulomb
SciTegic.value.DoubleValue
142.032

@<SCITEGIC>MOL_PROPERTY
VdW
SciTegic.value.DoubleValue
-22.791

@<SCITEGIC>MOL_PROPERTY
VdW6
SciTegic.value.DoubleValue
-180.200

@<SCITEGIC>MOL_PROPERTY
VdW12
SciTegic.value.DoubleValue
157.409

@<SCITEGIC>MOL_PROPERTY
Bond
SciTegic.value.DoubleValue
5.108

@<SCITEGIC>MOL_PROPERTY
Angle
SciTegic.value.DoubleValue
17.173

@<SCITEGIC>MOL_PROPERTY
Pdih
SciTegic.value.DoubleValue
129.379

@<SCITEGIC>MOL_PROPERTY
Idih
SciTegic.value.DoubleValue
0.028

@<SCITEGIC>MOL_PROPERTY
Tether
SciTegic.value.DoubleValue
0.000

@<TRIPOS>MOLECULE
CD_guest-s19_fast_vm2_rndm.mol2 : feprocess host+ligand conformer 197
         143         148           2
SMALL
USER_CHARGES
 
@<TRIPOS>ATOM
       1    C1      16.066928   15.177360   20.734890 C.3        1 MOL1         0.2972
       2    H1      15.052827   14.923943   20.401698 H          1 MOL1         0.0751
       3    O1      16.172981   16.548331   21.156355 O.3        1 MOL1        -0.3740
       4    C2      16.473007   14.305547   21.949761 C.3        1 MOL1         0.1003
       5    H2      16.471827   13.257766   21.622314 H          1 MOL1         0.0783
       6    O2      15.538915   14.464381   23.029643 O.3        1 MOL1        -0.5519
       7    H3      15.245910   15.410438   23.027226 H          1 MOL1         0.3769
       8    C3      17.906554   14.662121   22.413966 C.3        1 MOL1         0.1053
       9    H4      17.902923   15.691096   22.800173 H          1 MOL1         0.0783
      10    O3      18.314244   13.758880   23.446763 O.3        1 MOL1        -0.5519
      11    H5      17.538089   13.694664   24.047455 H          1 MOL1         0.3769
      12    C4      18.893690   14.594323   21.223770 C.3        1 MOL1         0.1018
      13    H6      19.031040   13.541205   20.945649 H          1 MOL1         0.0783
      14    C5      18.383644   15.374997   19.982005 C.3        1 MOL1         0.1043
      15    H7      18.378731   16.444281   20.223042 H          1 MOL1         0.0783
      16    O4      17.029110   14.952071   19.679840 O.3        1 MOL1        -0.3740
      17    C6      19.266248   15.199945   18.718290 C.3        1 MOL1         0.0138
      18    H8      20.079870   15.934385   18.757815 H          1 MOL1         0.0794
      19    H9      18.663530   15.442873   17.833256 H          1 MOL1         0.0794
      20    O5      19.825133   13.885484   18.596347 O.3        1 MOL1        -0.5486
      21    H10     20.557362   13.823730   19.251853 H          1 MOL1         0.3769
      22    C7      14.481749   20.285753   21.141324 C.3        1 MOL1         0.2972
      23    H11     13.855565   21.181782   21.045006 H          1 MOL1         0.0751
      24    O6      15.797588   20.598580   21.638281 O.3        1 MOL1        -0.3740
      25    C8      13.838243   19.298461   22.142002 C.3        1 MOL1         0.1003
      26    H12     12.862903   18.997686   21.737887 H          1 MOL1         0.0783
      27    O7      13.654338   19.930217   23.419375 O.3        1 MOL1        -0.5519
      28    H13     14.406287   20.563384   23.537920 H          1 MOL1         0.3769
      29    C9      14.714332   18.033123   22.285441 C.3        1 MOL1         0.1053
      30    H14     15.655622   18.325588   22.771821 H          1 MOL1         0.0783
      31    O8      14.036116   17.069328   23.097429 O.3        1 MOL1        -0.5519
      32    H15     13.692493   17.580576   23.863997 H          1 MOL1         0.3769
      33    C10     15.057800   17.416589   20.906303 C.3        1 MOL1         0.1018
      34    H16     14.179280   16.876704   20.530696 H          1 MOL1         0.0783
      35    C11     15.520689   18.478193   19.866953 C.3        1 MOL1         0.1043
      36    H17     16.518979   18.820396   20.158718 H          1 MOL1         0.0783
      37    O9      14.617458   19.614250   19.870803 O.3        1 MOL1        -0.3740
      38    C12     15.652356   17.943092   18.420871 C.3        1 MOL1         0.0138
      39    H18     16.553484   17.317508   18.361119 H          1 MOL1         0.0794
      40    H19     15.814625   18.797281   17.750394 H          1 MOL1         0.0794
      41    O10     14.505098   17.195156   17.998978 O.3        1 MOL1        -0.5486
      42    H20     14.634407   16.269232   18.294300 H          1 MOL1         0.3769
      43    C13     18.423258   23.858359   21.944082 C.3        1 MOL1         0.2972
      44    H21     18.806764   24.885821   21.895278 H          1 MOL1         0.0751
      45    O11     19.468128   22.956997   22.359281 O.3        1 MOL1        -0.3740
      46    C14     17.274702   23.782431   22.983622 C.3        1 MOL1         0.1003
      47    H22     16.512026   24.514915   22.688805 H          1 MOL1         0.0783
      48    O12     17.764543   24.107181   24.292468 O.3        1 MOL1        -0.5519
      49    H23     18.648127   23.679542   24.360042 H          1 MOL1         0.3769
      50    C15     16.616847   22.383725   22.992895 C.3        1 MOL1         0.1053
      51    H24     17.352511   21.654309   23.360416 H          1 MOL1         0.0783
      52    O13     15.470329   22.398775   23.851323 O.3        1 MOL1        -0.5519
      53    H25     15.772023   22.846282   24.672988 H          1 MOL1         0.3769
      54    C16     16.200066   21.975466   21.563338 C.3        1 MOL1         0.1018
      55    H26     15.380823   22.629776   21.237466 H          1 MOL1         0.0783
      56    C17     17.389801   22.096585   20.574287 C.3        1 MOL1         0.1043
      57    H27     18.159738   21.376028   20.879422 H          1 MOL1         0.0783
      58    O14     17.928910   23.441655   20.648835 O.3        1 MOL1        -0.3740
      59    C18     17.031076   21.795858   19.095134 C.3        1 MOL1         0.0138
      60    H28     17.109941   20.714423   18.929580 H          1 MOL1         0.0794
      61    H29     17.780020   22.270090   18.447801 H          1 MOL1         0.0794
      62    O15     15.718985   22.238810   18.730319 O.3        1 MOL1        -0.5486
      63    H30     15.105683   21.500877   18.951089 H          1 MOL1         0.3769
      64    C19     23.401163   22.518109   21.062295 C.3        1 MOL1         0.2972
      65    H31     23.140491   23.041241   20.135990 H          1 MOL1         0.0751
      66    O16     24.783479   22.104087   20.937091 O.3        1 MOL1        -0.3740
      67    C20     23.235098   23.508363   22.249910 C.3        1 MOL1         0.1003
      68    H32     23.502316   24.503148   21.870580 H          1 MOL1         0.0783
      69    O17     24.083965   23.175599   23.359655 O.3        1 MOL1        -0.5519
      70    H33     24.760176   22.534486   23.023563 H          1 MOL1         0.3769
      71    C21     21.766928   23.550154   22.764031 C.3        1 MOL1         0.1053
      72    H34     21.680515   22.817366   23.578962 H          1 MOL1         0.0783
      73    O18     21.476736   24.859624   23.265095 O.3        1 MOL1        -0.5519
      74    H35     22.134709   25.026302   23.974200 H          1 MOL1         0.3769
      75    C22     20.731967   23.138096   21.683962 C.3        1 MOL1         0.1018
      76    H36     20.675419   23.944195   20.942435 H          1 MOL1         0.0783
      77    C23     21.106687   21.786469   20.998334 C.3        1 MOL1         0.1043
      78    H37     20.490316   21.006827   21.456123 H          1 MOL1         0.0783
      79    O19     22.485619   21.432488   21.257427 O.3        1 MOL1        -0.3740
      80    C24     20.846809   21.727078   19.466157 C.3        1 MOL1         0.0138
      81    H38     19.794940   21.476499   19.291627 H          1 MOL1         0.0794
      82    H39     21.433166   20.896835   19.051421 H          1 MOL1         0.0794
      83    O20     21.178537   22.937988   18.774826 O.3        1 MOL1        -0.5486
      84    H40     20.388947   23.520761   18.797904 H          1 MOL1         0.3769
      85    C25     25.137843   17.799039   21.102292 C.3        1 MOL1         0.2972
      86    H41     25.680595   16.852718   20.982925 H          1 MOL1         0.0751
      87    O21     23.755368   17.569918   21.444478 O.3        1 MOL1        -0.3740
      88    C26     25.783408   18.646937   22.234959 C.3        1 MOL1         0.1003
      89    H42     26.838906   18.781257   21.964561 H          1 MOL1         0.0783
      90    O22     25.725801   17.977026   23.503186 O.3        1 MOL1        -0.5519
      91    H43     24.809127   17.614716   23.609248 H          1 MOL1         0.3769
      92    C27     25.146839   20.057908   22.327741 C.3        1 MOL1         0.1053
      93    H44     24.097424   19.961053   22.638162 H          1 MOL1         0.0783
      94    O23     25.886769   20.831401   23.277060 O.3        1 MOL1        -0.5519
      95    H45     26.000002   20.239967   24.054556 H          1 MOL1         0.3769
      96    C28     25.217275   20.713591   20.928450 C.3        1 MOL1         0.1018
      97    H46     26.282980   20.731992   20.666427 H          1 MOL1         0.0783
      98    C29     24.521213   19.823319   19.855674 C.3        1 MOL1         0.1043
      99    H47     23.469102   19.653384   20.111427 H          1 MOL1         0.0783
     100    O24     25.196601   18.543263   19.860068 O.3        1 MOL1        -0.3740
     101    C30     24.567899   20.407598   18.423235 C.3        1 MOL1         0.0138
     102    H48     23.823955   21.212570   18.351133 H          1 MOL1         0.0794
     103    H49     24.265084   19.624533   17.715327 H          1 MOL1         0.0794
     104    O25     25.863433   20.915197   18.081296 O.3        1 MOL1        -0.5486
     105    H50     26.039047   21.679513   18.672794 H          1 MOL1         0.3769
     106    C31     21.189296   14.282433   21.939335 C.3        1 MOL1         0.2972
     107    H51     20.809623   13.264790   22.098524 H          1 MOL1         0.0751
     108    O26     20.123203   15.202367   21.652884 O.3        1 MOL1        -0.3740
     109    C32     21.922723   14.767148   23.214254 C.3        1 MOL1         0.1003
     110    H52     22.741542   14.061955   23.407379 H          1 MOL1         0.0783
     111    O27     21.033180   14.774894   24.342723 O.3        1 MOL1        -0.5519
     112    H53     20.118809   14.648154   23.988264 H          1 MOL1         0.3769
     113    C33     22.541226   16.167849   23.004307 C.3        1 MOL1         0.1053
     114    H54     21.725591   16.890216   22.892441 H          1 MOL1         0.0783
     115    O28     23.326156   16.501491   24.151862 O.3        1 MOL1        -0.5519
     116    H55     22.742498   16.302698   24.917874 H          1 MOL1         0.3769
     117    C34     23.412246   16.193904   21.723868 C.3        1 MOL1         0.1018
     118    H56     24.305057   15.583450   21.914222 H          1 MOL1         0.0783
     119    C35     22.649529   15.620701   20.495811 C.3        1 MOL1         0.1043
     120    H57     21.831167   16.308146   20.249166 H          1 MOL1         0.0783
     121    O29     22.103817   14.315262   20.822860 O.3        1 MOL1        -0.3740
     122    C36     23.524090   15.477153   19.228208 C.3        1 MOL1         0.0138
     123    H58     23.743225   16.482281   18.842686 H          1 MOL1         0.0794
     124    H59     22.941242   14.955145   18.457608 H          1 MOL1         0.0794
     125    O30     24.746230   14.775523   19.492695 O.3        1 MOL1        -0.5486
     126    H60     25.225957   14.684191   18.641002 H          1 MOL1         0.3769
     127    C1      19.912239   18.584973   19.573174 C.2        1 MOL1         0.6173
     128    O1      20.890976   18.377079   18.882213 O.co2      1 MOL1        -0.6755
     129    O2      18.819135   18.875277   19.124633 O.co2      1 MOL1        -0.6755
     130    C2      20.090981   18.484912   21.044656 C.2        1 MOL1        -0.1504
     131    H1      21.100559   18.263750   21.372132 H          1 MOL1         0.0814
     132    C3      19.102234   18.665710   21.949879 C.2        1 MOL1        -0.1394
     133    H2      18.089582   18.898436   21.631664 H          1 MOL1         0.0817
     134    C4      19.298500   18.552275   23.445395 C.3        1 MOL1        -0.1849
     135    H3      19.667641   17.548749   23.693839 H          1 MOL1         0.0736
     136    H4      18.329096   18.658078   23.950240 H          1 MOL1         0.0736
     137    C5      20.275422   19.619053   23.984820 C.3        1 MOL1        -0.1866
     138    H5      21.241816   19.539909   23.467881 H          1 MOL1         0.0738
     139    H6      19.879255   20.620664   23.772703 H          1 MOL1         0.0738
     140    C6      20.500435   19.468346   25.501587 C.3        1 MOL1        -0.2879
     141    H7      19.556178   19.575046   26.050963 H          1 MOL1         0.0750
     142    H8      20.926535   18.484315   25.737075 H          1 MOL1         0.0750
     143    H9      21.195627   20.235387   25.866310 H          1 MOL1         0.0750
@<TRIPOS>BOND
    1     1     2    1
    2     1     3    1
    3     1     4    1
    4     4     5    1
    5     4     6    1
    6     6     7    1
    7     4     8    1
    8     8     9    1
    9     8    10    1
   10    10    11    1
   11     8    12    1
   12    12    13    1
   13    12    14    1
   14    14    15    1
   15     1    16    1
   16    14    16    1
   17    14    17    1
   18    17    18    1
   19    17    19    1
   20    17    20    1
   21    20    21    1
   22    22    23    1
   23    22    24    1
   24    22    25    1
   25    25    26    1
   26    25    27    1
   27    27    28    1
   28    25    29    1
   29    29    30    1
   30    29    31    1
   31    31    32    1
   32     3    33    1
   33    29    33    1
   34    33    34    1
   35    33    35    1
   36    35    36    1
   37    22    37    1
   38    35    37    1
   39    35    38    1
   40    38    39    1
   41    38    40    1
   42    38    41    1
   43    41    42    1
   44    43    44    1
   45    43    45    1
   46    43    46    1
   47    46    47    1
   48    46    48    1
   49    48    49    1
   50    46    50    1
   51    50    51    1
   52    50    52    1
   53    52    53    1
   54    24    54    1
   55    50    54    1
   56    54    55    1
   57    54    56    1
   58    56    57    1
   59    43    58    1
   60    56    58    1
   61    56    59    1
   62    59    60    1
   63    59    61    1
   64    59    62    1
   65    62    63    1
   66    64    65    1
   67    64    66    1
   68    64    67    1
   69    67    68    1
   70    67    69    1
   71    69    70    1
   72    67    71    1
   73    71    72    1
   74    71    73    1
   75    73    74    1
   76    45    75    1
   77    71    75    1
   78    75    76    1
   79    75    77    1
   80    77    78    1
   81    64    79    1
   82    77    79    1
   83    77    80    1
   84    80    81    1
   85    80    82    1
   86    80    83    1
   87    83    84    1
   88    85    86    1
   89    85    87    1
   90    85    88    1
   91    88    89    1
   92    88    90    1
   93    90    91    1
   94    88    92    1
   95    92    93    1
   96    92    94    1
   97    94    95    1
   98    66    96    1
   99    92    96    1
  100    96    97    1
  101    96    98    1
  102    98    99    1
  103    85   100    1
  104    98   100    1
  105    98   101    1
  106   101   102    1
  107   101   103    1
  108   101   104    1
  109   104   105    1
  110   106   107    1
  111    12   108    1
  112   106   108    1
  113   106   109    1
  114   109   110    1
  115   109   111    1
  116   111   112    1
  117   109   113    1
  118   113   114    1
  119   113   115    1
  120   115   116    1
  121    87   117    1
  122   113   117    1
  123   117   118    1
  124   117   119    1
  125   119   120    1
  126   106   121    1
  127   119   121    1
  128   119   122    1
  129   122   123    1
  130   122   124    1
  131   122   125    1
  132   125   126    1
  133   127   128    1
  134   127   129    2
  135   127   130    1
  136   130   131    1
  137   130   132    2
  138   132   133    1
  139   132   134    1
  140   134   135    1
  141   134   136    1
  142   134   137    1
  143   137   138    1
  144   137   139    1
  145   137   140    1
  146   140   141    1
  147   140   142    1
  148   140   143    1
@<TRIPOS>SUBSTRUCTURE
       1 MOL1            1 RESIDUE      1      MOL     
       2 MOL1          143 RESIDUE      1      MOL     
@<SCITEGIC>MOL_PROPERTY
feprocess Rank
SciTegic.value.IntegerValue
197

@<SCITEGIC>MOL_PROPERTY
Conf_Id
SciTegic.value.IntegerValue
237

@<SCITEGIC>MOL_PROPERTY
Probability
SciTegic.value.DoubleValue
0.00

@<SCITEGIC>MOL_PROPERTY
G
SciTegic.value.DoubleValue
508.487

@<SCITEGIC>MOL_PROPERTY
E
SciTegic.value.DoubleValue
328.762

@<SCITEGIC>MOL_PROPERTY
-TS
SciTegic.value.DoubleValue
179.725

@<SCITEGIC>MOL_PROPERTY
U+W
SciTegic.value.DoubleValue
202.673

@<SCITEGIC>MOL_PROPERTY
U
SciTegic.value.DoubleValue
272.977

@<SCITEGIC>MOL_PROPERTY
W
SciTegic.value.DoubleValue
-70.304

@<SCITEGIC>MOL_PROPERTY
W(PB)
SciTegic.value.DoubleValue
-76.245

@<SCITEGIC>MOL_PROPERTY
W(SA)
SciTegic.value.DoubleValue
5.941

@<SCITEGIC>MOL_PROPERTY
Valence
SciTegic.value.DoubleValue
154.535

@<SCITEGIC>MOL_PROPERTY
Coulomb
SciTegic.value.DoubleValue
144.878

@<SCITEGIC>MOL_PROPERTY
VdW
SciTegic.value.DoubleValue
-26.437

@<SCITEGIC>MOL_PROPERTY
VdW6
SciTegic.value.DoubleValue
-184.606

@<SCITEGIC>MOL_PROPERTY
VdW12
SciTegic.value.DoubleValue
158.169

@<SCITEGIC>MOL_PROPERTY
Bond
SciTegic.value.DoubleValue
4.956

@<SCITEGIC>MOL_PROPERTY
Angle
SciTegic.value.DoubleValue
18.157

@<SCITEGIC>MOL_PROPERTY
Pdih
SciTegic.value.DoubleValue
131.422

@<SCITEGIC>MOL_PROPERTY
Idih
SciTegic.value.DoubleValue
0.001

@<SCITEGIC>MOL_PROPERTY
Tether
SciTegic.value.DoubleValue
0.000

@<TRIPOS>MOLECULE
CD_guest-s19_fast_vm2_rndm.mol2 : feprocess host+ligand conformer 198
         143         148           2
SMALL
USER_CHARGES
 
@<TRIPOS>ATOM
       1    C1      16.374637   15.258582   21.827505 C.3        1 MOL1         0.2972
       2    H1      15.316845   15.130462   22.092098 H          1 MOL1         0.0751
       3    O1      16.705056   16.644799   21.625155 O.3        1 MOL1        -0.3740
       4    C2      17.266811   14.706247   22.963031 C.3        1 MOL1         0.1003
       5    H2      17.040656   13.637211   23.068741 H          1 MOL1         0.0783
       6    O2      16.980956   15.375183   24.202160 O.3        1 MOL1        -0.5519
       7    H3      16.445289   16.175078   23.977674 H          1 MOL1         0.3769
       8    C3      18.763562   14.845547   22.604900 C.3        1 MOL1         0.1053
       9    H4      19.009702   15.914861   22.582413 H          1 MOL1         0.0783
      10    O3      19.537095   14.191689   23.615465 O.3        1 MOL1        -0.5519
      11    H5      19.164254   14.521824   24.463863 H          1 MOL1         0.3769
      12    C4      19.070588   14.243631   21.208223 C.3        1 MOL1         0.1018
      13    H6      19.070000   13.148359   21.286380 H          1 MOL1         0.0783
      14    C5      18.047440   14.696377   20.128542 C.3        1 MOL1         0.1043
      15    H7      18.240088   15.755242   19.916050 H          1 MOL1         0.0783
      16    O4      16.686786   14.548250   20.611203 O.3        1 MOL1        -0.3740
      17    C6      18.178607   13.929217   18.791126 C.3        1 MOL1         0.0138
      18    H8      19.112439   14.238626   18.302437 H          1 MOL1         0.0794
      19    H9      17.351782   14.227391   18.132439 H          1 MOL1         0.0794
      20    O5      18.177729   12.508902   18.981559 O.3        1 MOL1        -0.5486
      21    H10     18.180713   12.089098   18.093711 H          1 MOL1         0.3769
      22    C7      14.718424   20.297311   21.177159 C.3        1 MOL1         0.2972
      23    H11     13.960827   21.060864   20.959178 H          1 MOL1         0.0751
      24    O6      15.972265   20.890037   21.556224 O.3        1 MOL1        -0.3740
      25    C8      14.255329   19.421153   22.368956 C.3        1 MOL1         0.1003
      26    H12     13.299678   18.958598   22.090032 H          1 MOL1         0.0783
      27    O7      14.067253   20.233157   23.538711 O.3        1 MOL1        -0.5519
      28    H13     14.723746   20.969453   23.482706 H          1 MOL1         0.3769
      29    C9      15.271714   18.288690   22.654875 C.3        1 MOL1         0.1053
      30    H14     16.204222   18.741194   23.017284 H          1 MOL1         0.0783
      31    O8      14.742510   17.409144   23.652103 O.3        1 MOL1        -0.5519
      32    H15     14.381040   18.002650   24.348106 H          1 MOL1         0.3769
      33    C10     15.585132   17.504997   21.358296 C.3        1 MOL1         0.1018
      34    H16     14.693075   16.937199   21.061818 H          1 MOL1         0.0783
      35    C11     15.984901   18.450896   20.196844 C.3        1 MOL1         0.1043
      36    H17     16.927647   18.944408   20.467336 H          1 MOL1         0.0783
      37    O9      14.946375   19.449723   20.027924 O.3        1 MOL1        -0.3740
      38    C12     16.220089   17.732712   18.841845 C.3        1 MOL1         0.0138
      39    H18     17.272573   17.426227   18.791847 H          1 MOL1         0.0794
      40    H19     16.060516   18.453399   18.028837 H          1 MOL1         0.0794
      41    O10     15.379316   16.587155   18.654337 O.3        1 MOL1        -0.5486
      42    H20     15.683818   15.893665   19.284873 H          1 MOL1         0.3769
      43    C13     18.352882   24.251691   21.030466 C.3        1 MOL1         0.2972
      44    H21     18.749023   25.241754   20.771144 H          1 MOL1         0.0751
      45    O11     19.363571   23.410394   21.618169 O.3        1 MOL1        -0.3740
      46    C14     17.205713   24.400442   22.059200 C.3        1 MOL1         0.1003
      47    H22     16.423115   25.018344   21.600226 H          1 MOL1         0.0783
      48    O12     17.686885   25.045397   23.249144 O.3        1 MOL1        -0.5519
      49    H23     18.630826   24.771154   23.360652 H          1 MOL1         0.3769
      50    C15     16.592147   23.022600   22.399379 C.3        1 MOL1         0.1053
      51    H24     17.349316   22.443636   22.942348 H          1 MOL1         0.0783
      52    O13     15.434543   23.196374   23.223648 O.3        1 MOL1        -0.5519
      53    H25     15.721579   23.798804   23.944918 H          1 MOL1         0.3769
      54    C16     16.213611   22.238781   21.118984 C.3        1 MOL1         0.1018
      55    H26     15.320393   22.700671   20.678472 H          1 MOL1         0.0783
      56    C17     17.370939   22.225281   20.078968 C.3        1 MOL1         0.1043
      57    H27     18.187882   21.622966   20.495861 H          1 MOL1         0.0783
      58    O14     17.836798   23.581642   19.860856 O.3        1 MOL1        -0.3740
      59    C18     17.021789   21.609819   18.699677 C.3        1 MOL1         0.0138
      60    H28     17.227472   20.533460   18.736186 H          1 MOL1         0.0794
      61    H29     17.698865   22.034051   17.946191 H          1 MOL1         0.0794
      62    O15     15.661576   21.825544   18.310273 O.3        1 MOL1        -0.5486
      63    H30     15.130090   21.120465   18.746332 H          1 MOL1         0.3769
      64    C19     23.552990   23.040915   21.730752 C.3        1 MOL1         0.2972
      65    H31     24.613423   23.273425   21.569001 H          1 MOL1         0.0751
      66    O16     23.409300   21.765659   22.397778 O.3        1 MOL1        -0.3740
      67    C20     22.918782   24.131294   22.635347 C.3        1 MOL1         0.1003
      68    H32     23.098586   25.102251   22.155679 H          1 MOL1         0.0783
      69    O17     23.534860   24.120586   23.931454 O.3        1 MOL1        -0.5519
      70    H33     23.612570   23.171970   24.184361 H          1 MOL1         0.3769
      71    C21     21.388481   23.942870   22.771033 C.3        1 MOL1         0.1053
      72    H34     21.201440   23.022046   23.341240 H          1 MOL1         0.0783
      73    O18     20.825853   25.066251   23.458371 O.3        1 MOL1        -0.5519
      74    H35     21.395696   25.197815   24.248115 H          1 MOL1         0.3769
      75    C22     20.730011   23.792226   21.381154 C.3        1 MOL1         0.1018
      76    H36     20.805176   24.750012   20.849470 H          1 MOL1         0.0783
      77    C23     21.438039   22.685686   20.554367 C.3        1 MOL1         0.1043
      78    H37     21.318610   21.730304   21.081063 H          1 MOL1         0.0783
      79    O19     22.846955   23.011639   20.469036 O.3        1 MOL1        -0.3740
      80    C24     20.898016   22.484127   19.116058 C.3        1 MOL1         0.0138
      81    H38     20.048662   21.791426   19.156268 H          1 MOL1         0.0794
      82    H39     21.676622   21.994795   18.516178 H          1 MOL1         0.0794
      83    O20     20.493473   23.706236   18.490171 O.3        1 MOL1        -0.5486
      84    H40     19.582393   23.899934   18.810737 H          1 MOL1         0.3769
      85    C25     24.460354   17.790992   21.527004 C.3        1 MOL1         0.2972
      86    H41     25.208640   17.405240   20.822689 H          1 MOL1         0.0751
      87    O21     23.614021   16.733154   22.009315 O.3        1 MOL1        -0.3740
      88    C26     25.167600   18.449557   22.753017 C.3        1 MOL1         0.1003
      89    H42     26.178389   18.732652   22.431982 H          1 MOL1         0.0783
      90    O22     25.274555   17.537394   23.859976 O.3        1 MOL1        -0.5519
      91    H43     24.562809   16.868359   23.717296 H          1 MOL1         0.3769
      92    C27     24.448405   19.741277   23.202609 C.3        1 MOL1         0.1053
      93    H44     23.425098   19.479741   23.505410 H          1 MOL1         0.0783
      94    O23     25.162912   20.314408   24.302298 O.3        1 MOL1        -0.5519
      95    H45     25.355410   19.555312   24.897592 H          1 MOL1         0.3769
      96    C28     24.377873   20.753775   22.033364 C.3        1 MOL1         0.1018
      97    H46     25.371133   21.212385   21.935206 H          1 MOL1         0.0783
      98    C29     23.989784   20.079396   20.680267 C.3        1 MOL1         0.1043
      99    H47     23.139438   20.611237   20.246678 H          1 MOL1         0.0783
     100    O24     23.553697   18.718177   20.888463 O.3        1 MOL1        -0.3740
     101    C30     25.125768   20.114349   19.631903 C.3        1 MOL1         0.0138
     102    H48     24.795867   19.576672   18.732995 H          1 MOL1         0.0794
     103    H49     26.011627   19.597943   20.023609 H          1 MOL1         0.0794
     104    O25     25.457542   21.465972   19.299071 O.3        1 MOL1        -0.5486
     105    H50     24.629636   21.928595   19.037987 H          1 MOL1         0.3769
     106    C31     21.320914   13.802215   20.312503 C.3        1 MOL1         0.2972
     107    H51     20.835834   12.964714   19.794881 H          1 MOL1         0.0751
     108    O26     20.353842   14.757794   20.797373 O.3        1 MOL1        -0.3740
     109    C32     22.212718   13.304449   21.475317 C.3        1 MOL1         0.1003
     110    H52     23.027791   12.719087   21.029894 H          1 MOL1         0.0783
     111    O27     21.489096   12.468634   22.390850 O.3        1 MOL1        -0.5519
     112    H53     20.799820   13.040365   22.813762 H          1 MOL1         0.3769
     113    C33     22.839827   14.509083   22.213152 C.3        1 MOL1         0.1053
     114    H54     22.028074   15.052323   22.717061 H          1 MOL1         0.0783
     115    O28     23.769143   14.024886   23.188957 O.3        1 MOL1        -0.5519
     116    H55     23.297032   13.304053   23.661112 H          1 MOL1         0.3769
     117    C34     23.551853   15.501726   21.250987 C.3        1 MOL1         0.1018
     118    H56     24.560344   15.115662   21.056316 H          1 MOL1         0.0783
     119    C35     22.796221   15.724584   19.893515 C.3        1 MOL1         0.1043
     120    H57     21.994524   16.453524   20.060148 H          1 MOL1         0.0783
     121    O29     22.207751   14.489106   19.411278 O.3        1 MOL1        -0.3740
     122    C36     23.674501   16.265207   18.734471 C.3        1 MOL1         0.0138
     123    H58     23.818828   17.343664   18.859153 H          1 MOL1         0.0794
     124    H59     23.122906   16.132056   17.793988 H          1 MOL1         0.0794
     125    O30     24.945832   15.609013   18.654884 O.3        1 MOL1        -0.5486
     126    H60     25.387864   15.912538   17.832059 H          1 MOL1         0.3769
     127    C1      17.744622   21.388419   26.434710 C.2        1 MOL1         0.6173
     128    O1      18.720249   21.875069   26.974945 O.co2      1 MOL1        -0.6755
     129    O2      16.645781   21.362934   26.953676 O.co2      1 MOL1        -0.6755
     130    C2      17.877057   20.790037   25.078707 C.2        1 MOL1        -0.1504
     131    H1      16.966388   20.374204   24.655156 H          1 MOL1         0.0814
     132    C3      19.035999   20.752527   24.382546 C.2        1 MOL1        -0.1394
     133    H2      19.951012   21.171356   24.800280 H          1 MOL1         0.0817
     134    C4      19.166296   20.155292   22.999364 C.3        1 MOL1        -0.1849
     135    H3      19.632990   20.886313   22.332086 H          1 MOL1         0.0736
     136    H4      18.177463   19.935787   22.581679 H          1 MOL1         0.0736
     137    C5      20.008499   18.868123   23.015763 C.3        1 MOL1        -0.1866
     138    H5      21.000659   19.079666   23.436710 H          1 MOL1         0.0738
     139    H6      19.533552   18.125862   23.671954 H          1 MOL1         0.0738
     140    C6      20.168125   18.281264   21.601288 C.3        1 MOL1        -0.2879
     141    H7      20.678955   18.988288   20.935529 H          1 MOL1         0.0750
     142    H8      20.767553   17.365315   21.647367 H          1 MOL1         0.0750
     143    H9      19.193925   18.029866   21.164087 H          1 MOL1         0.0750
@<TRIPOS>BOND
    1     1     2    1
    2     1     3    1
    3     1     4    1
    4     4     5    1
    5     4     6    1
    6     6     7    1
    7     4     8    1
    8     8     9    1
    9     8    10    1
   10    10    11    1
   11     8    12    1
   12    12    13    1
   13    12    14    1
   14    14    15    1
   15     1    16    1
   16    14    16    1
   17    14    17    1
   18    17    18    1
   19    17    19    1
   20    17    20    1
   21    20    21    1
   22    22    23    1
   23    22    24    1
   24    22    25    1
   25    25    26    1
   26    25    27    1
   27    27    28    1
   28    25    29    1
   29    29    30    1
   30    29    31    1
   31    31    32    1
   32     3    33    1
   33    29    33    1
   34    33    34    1
   35    33    35    1
   36    35    36    1
   37    22    37    1
   38    35    37    1
   39    35    38    1
   40    38    39    1
   41    38    40    1
   42    38    41    1
   43    41    42    1
   44    43    44    1
   45    43    45    1
   46    43    46    1
   47    46    47    1
   48    46    48    1
   49    48    49    1
   50    46    50    1
   51    50    51    1
   52    50    52    1
   53    52    53    1
   54    24    54    1
   55    50    54    1
   56    54    55    1
   57    54    56    1
   58    56    57    1
   59    43    58    1
   60    56    58    1
   61    56    59    1
   62    59    60    1
   63    59    61    1
   64    59    62    1
   65    62    63    1
   66    64    65    1
   67    64    66    1
   68    64    67    1
   69    67    68    1
   70    67    69    1
   71    69    70    1
   72    67    71    1
   73    71    72    1
   74    71    73    1
   75    73    74    1
   76    45    75    1
   77    71    75    1
   78    75    76    1
   79    75    77    1
   80    77    78    1
   81    64    79    1
   82    77    79    1
   83    77    80    1
   84    80    81    1
   85    80    82    1
   86    80    83    1
   87    83    84    1
   88    85    86    1
   89    85    87    1
   90    85    88    1
   91    88    89    1
   92    88    90    1
   93    90    91    1
   94    88    92    1
   95    92    93    1
   96    92    94    1
   97    94    95    1
   98    66    96    1
   99    92    96    1
  100    96    97    1
  101    96    98    1
  102    98    99    1
  103    85   100    1
  104    98   100    1
  105    98   101    1
  106   101   102    1
  107   101   103    1
  108   101   104    1
  109   104   105    1
  110   106   107    1
  111    12   108    1
  112   106   108    1
  113   106   109    1
  114   109   110    1
  115   109   111    1
  116   111   112    1
  117   109   113    1
  118   113   114    1
  119   113   115    1
  120   115   116    1
  121    87   117    1
  122   113   117    1
  123   117   118    1
  124   117   119    1
  125   119   120    1
  126   106   121    1
  127   119   121    1
  128   119   122    1
  129   122   123    1
  130   122   124    1
  131   122   125    1
  132   125   126    1
  133   127   128    1
  134   127   129    2
  135   127   130    1
  136   130   131    1
  137   130   132    2
  138   132   133    1
  139   132   134    1
  140   134   135    1
  141   134   136    1
  142   134   137    1
  143   137   138    1
  144   137   139    1
  145   137   140    1
  146   140   141    1
  147   140   142    1
  148   140   143    1
@<TRIPOS>SUBSTRUCTURE
       1 MOL1            1 RESIDUE      1      MOL     
       2 MOL1          143 RESIDUE      1      MOL     
@<SCITEGIC>MOL_PROPERTY
feprocess Rank
SciTegic.value.IntegerValue
198

@<SCITEGIC>MOL_PROPERTY
Conf_Id
SciTegic.value.IntegerValue
170

@<SCITEGIC>MOL_PROPERTY
Probability
SciTegic.value.DoubleValue
0.00

@<SCITEGIC>MOL_PROPERTY
G
SciTegic.value.DoubleValue
509.063

@<SCITEGIC>MOL_PROPERTY
E
SciTegic.value.DoubleValue
332.208

@<SCITEGIC>MOL_PROPERTY
-TS
SciTegic.value.DoubleValue
176.855

@<SCITEGIC>MOL_PROPERTY
U+W
SciTegic.value.DoubleValue
206.119

@<SCITEGIC>MOL_PROPERTY
U
SciTegic.value.DoubleValue
298.391

@<SCITEGIC>MOL_PROPERTY
W
SciTegic.value.DoubleValue
-92.272

@<SCITEGIC>MOL_PROPERTY
W(PB)
SciTegic.value.DoubleValue
-98.525

@<SCITEGIC>MOL_PROPERTY
W(SA)
SciTegic.value.DoubleValue
6.253

@<SCITEGIC>MOL_PROPERTY
Valence
SciTegic.value.DoubleValue
154.968

@<SCITEGIC>MOL_PROPERTY
Coulomb
SciTegic.value.DoubleValue
165.439

@<SCITEGIC>MOL_PROPERTY
VdW
SciTegic.value.DoubleValue
-22.015

@<SCITEGIC>MOL_PROPERTY
VdW6
SciTegic.value.DoubleValue
-169.621

@<SCITEGIC>MOL_PROPERTY
VdW12
SciTegic.value.DoubleValue
147.606

@<SCITEGIC>MOL_PROPERTY
Bond
SciTegic.value.DoubleValue
4.805

@<SCITEGIC>MOL_PROPERTY
Angle
SciTegic.value.DoubleValue
15.519

@<SCITEGIC>MOL_PROPERTY
Pdih
SciTegic.value.DoubleValue
134.644

@<SCITEGIC>MOL_PROPERTY
Idih
SciTegic.value.DoubleValue
0.000

@<SCITEGIC>MOL_PROPERTY
Tether
SciTegic.value.DoubleValue
0.000

@<TRIPOS>MOLECULE
CD_guest-s19_fast_vm2_rndm.mol2 : feprocess host+ligand conformer 199
         143         148           2
SMALL
USER_CHARGES
 
@<TRIPOS>ATOM
       1    C1      16.379452   15.532992   21.072783 C.3        1 MOL1         0.2972
       2    H1      16.574850   15.317143   20.016159 H          1 MOL1         0.0751
       3    O1      14.960749   15.822180   21.202252 O.3        1 MOL1        -0.3740
       4    C2      16.738847   14.272172   21.913715 C.3        1 MOL1         0.1003
       5    H2      16.417275   13.405123   21.322763 H          1 MOL1         0.0783
       6    O2      16.077925   14.239163   23.190142 O.3        1 MOL1        -0.5519
       7    H3      16.412204   15.012307   23.720012 H          1 MOL1         0.3769
       8    C3      18.266170   14.151319   22.168421 C.3        1 MOL1         0.1053
       9    H4      18.468012   14.542816   23.175580 H          1 MOL1         0.0783
      10    O3      18.651226   12.772994   22.113183 O.3        1 MOL1        -0.5519
      11    H5      18.123375   12.316063   22.803060 H          1 MOL1         0.3769
      12    C4      19.121049   14.998650   21.193595 C.3        1 MOL1         0.1018
      13    H6      19.092319   14.549774   20.192123 H          1 MOL1         0.0783
      14    C5      18.634378   16.475965   21.124052 C.3        1 MOL1         0.1043
      15    H7      19.205479   17.043736   21.864542 H          1 MOL1         0.0783
      16    O4      17.237439   16.614519   21.477236 O.3        1 MOL1        -0.3740
      17    C6      18.891001   17.170137   19.764742 C.3        1 MOL1         0.0138
      18    H8      19.969268   17.196229   19.571268 H          1 MOL1         0.0794
      19    H9      18.562226   18.210991   19.857763 H          1 MOL1         0.0794
      20    O5      18.217301   16.535688   18.671497 O.3        1 MOL1        -0.5486
      21    H10     18.798292   15.823653   18.329331 H          1 MOL1         0.3769
      22    C7      14.621428   20.091078   21.590810 C.3        1 MOL1         0.2972
      23    H11     14.098619   21.053655   21.662461 H          1 MOL1         0.0751
      24    O6      16.047112   20.303188   21.517894 O.3        1 MOL1        -0.3740
      25    C8      14.246198   19.232102   22.834124 C.3        1 MOL1         0.1003
      26    H12     13.150082   19.182310   22.859498 H          1 MOL1         0.0783
      27    O7      14.702435   19.853774   24.047229 O.3        1 MOL1        -0.5519
      28    H13     15.115583   19.147526   24.607479 H          1 MOL1         0.3769
      29    C9      14.764860   17.778899   22.733833 C.3        1 MOL1         0.1053
      30    H14     15.848934   17.816743   22.862610 H          1 MOL1         0.0783
      31    O8      14.163742   16.991544   23.768999 O.3        1 MOL1        -0.5519
      32    H15     14.774802   17.059918   24.547682 H          1 MOL1         0.3769
      33    C10     14.425994   17.169073   21.350696 C.3        1 MOL1         0.1018
      34    H16     13.332163   17.091094   21.316529 H          1 MOL1         0.0783
      35    C11     14.852757   18.098190   20.183121 C.3        1 MOL1         0.1043
      36    H17     15.940935   18.212516   20.202338 H          1 MOL1         0.0783
      37    O9      14.232795   19.396339   20.379138 O.3        1 MOL1        -0.3740
      38    C12     14.463267   17.561945   18.783165 C.3        1 MOL1         0.0138
      39    H18     15.135018   16.730751   18.529239 H          1 MOL1         0.0794
      40    H19     14.635278   18.350434   18.039305 H          1 MOL1         0.0794
      41    O10     13.102171   17.119607   18.725707 O.3        1 MOL1        -0.5486
      42    H20     13.028356   16.329291   19.304102 H          1 MOL1         0.3769
      43    C13     18.689982   23.350403   20.380869 C.3        1 MOL1         0.2972
      44    H21     19.144296   24.225590   19.899253 H          1 MOL1         0.0751
      45    O11     19.667535   22.587796   21.115349 O.3        1 MOL1        -0.3740
      46    C14     17.555909   23.783496   21.344734 C.3        1 MOL1         0.1003
      47    H22     16.818604   24.329947   20.742243 H          1 MOL1         0.0783
      48    O12     18.043057   24.653714   22.378648 O.3        1 MOL1        -0.5519
      49    H23     18.768543   24.172187   22.851774 H          1 MOL1         0.3769
      50    C15     16.840466   22.555991   21.961019 C.3        1 MOL1         0.1053
      51    H24     17.533734   22.053625   22.650167 H          1 MOL1         0.0783
      52    O13     15.686788   23.022124   22.668136 O.3        1 MOL1        -0.5519
      53    H25     16.012547   23.741278   23.252143 H          1 MOL1         0.3769
      54    C16     16.416195   21.540823   20.866802 C.3        1 MOL1         0.1018
      55    H26     15.569373   21.976146   20.320399 H          1 MOL1         0.0783
      56    C17     17.552692   21.241943   19.849717 C.3        1 MOL1         0.1043
      57    H27     18.333624   20.659731   20.356609 H          1 MOL1         0.0783
      58    O14     18.112029   22.490849   19.377374 O.3        1 MOL1        -0.3740
      59    C18     17.092848   20.440292   18.602706 C.3        1 MOL1         0.0138
      60    H28     17.089589   19.372700   18.843494 H          1 MOL1         0.0794
      61    H29     17.835370   20.579420   17.805701 H          1 MOL1         0.0794
      62    O15     15.793929   20.824703   18.134596 O.3        1 MOL1        -0.5486
      63    H30     15.136890   20.488627   18.787551 H          1 MOL1         0.3769
      64    C19     23.645588   22.718338   22.273213 C.3        1 MOL1         0.2972
      65    H31     24.667518   23.004696   22.553595 H          1 MOL1         0.0751
      66    O16     23.501676   21.286592   22.211684 O.3        1 MOL1        -0.3740
      67    C20     22.643783   23.259268   23.321997 C.3        1 MOL1         0.1003
      68    H32     22.717697   24.354586   23.317295 H          1 MOL1         0.0783
      69    O17     22.972145   22.769636   24.630293 O.3        1 MOL1        -0.5519
      70    H33     23.240810   21.830297   24.517121 H          1 MOL1         0.3769
      71    C21     21.193953   22.876050   22.945507 C.3        1 MOL1         0.1053
      72    H34     21.096868   21.785062   23.015070 H          1 MOL1         0.0783
      73    O18     20.289055   23.503969   23.859143 O.3        1 MOL1        -0.5519
      74    H35     20.659842   23.314622   24.749832 H          1 MOL1         0.3769
      75    C22     20.862764   23.302000   21.494785 C.3        1 MOL1         0.1018
      76    H36     20.715620   24.390378   21.478025 H          1 MOL1         0.0783
      77    C23     21.976670   22.900690   20.487118 C.3        1 MOL1         0.1043
      78    H37     21.927165   21.811312   20.371965 H          1 MOL1         0.0783
      79    O19     23.289444   23.267556   20.987655 O.3        1 MOL1        -0.3740
      80    C24     21.804900   23.525571   19.081279 C.3        1 MOL1         0.0138
      81    H38     20.947007   23.048968   18.587988 H          1 MOL1         0.0794
      82    H39     22.695022   23.292857   18.481498 H          1 MOL1         0.0794
      83    O20     21.605438   24.942967   19.143461 O.3        1 MOL1        -0.5486
      84    H40     21.597462   25.284079   18.222559 H          1 MOL1         0.3769
      85    C25     25.410802   17.723305   21.444528 C.3        1 MOL1         0.2972
      86    H41     26.081959   16.892845   21.190463 H          1 MOL1         0.0751
      87    O21     24.079435   17.266275   21.748438 O.3        1 MOL1        -0.3740
      88    C26     25.937227   18.467648   22.691853 C.3        1 MOL1         0.1003
      89    H42     26.919983   18.890011   22.445060 H          1 MOL1         0.0783
      90    O22     26.067074   17.554737   23.793697 O.3        1 MOL1        -0.5519
      91    H43     25.356292   16.876248   23.685879 H          1 MOL1         0.3769
      92    C27     24.986341   19.629083   23.060781 C.3        1 MOL1         0.1053
      93    H44     24.041236   19.184103   23.395801 H          1 MOL1         0.0783
      94    O23     25.558729   20.397855   24.122947 O.3        1 MOL1        -0.5519
      95    H45     25.857486   19.736837   24.785788 H          1 MOL1         0.3769
      96    C28     24.681705   20.543255   21.844989 C.3        1 MOL1         0.1018
      97    H46     25.549657   21.194006   21.677021 H          1 MOL1         0.0783
      98    C29     24.362819   19.742290   20.544971 C.3        1 MOL1         0.1043
      99    H47     23.363201   19.306232   20.666008 H          1 MOL1         0.0783
     100    O24     25.327976   18.674076   20.364347 O.3        1 MOL1        -0.3740
     101    C30     24.336867   20.572928   19.233664 C.3        1 MOL1         0.0138
     102    H48     23.304511   20.875273   19.026022 H          1 MOL1         0.0794
     103    H49     24.638507   19.921219   18.402577 H          1 MOL1         0.0794
     104    O25     25.181232   21.728670   19.271206 O.3        1 MOL1        -0.5486
     105    H50     24.724776   22.401723   19.828868 H          1 MOL1         0.3769
     106    C31     21.406060   14.154413   21.072849 C.3        1 MOL1         0.2972
     107    H51     20.932395   13.217112   20.752998 H          1 MOL1         0.0751
     108    O26     20.457492   15.012995   21.737414 O.3        1 MOL1        -0.3740
     109    C32     22.560912   13.851348   22.061246 C.3        1 MOL1         0.1003
     110    H52     23.284243   13.208933   21.542393 H          1 MOL1         0.0783
     111    O27     22.060624   13.167743   23.219117 O.3        1 MOL1        -0.5519
     112    H53     21.177929   13.561027   23.403378 H          1 MOL1         0.3769
     113    C33     23.284885   15.151710   22.479569 C.3        1 MOL1         0.1053
     114    H54     22.584722   15.758167   23.071232 H          1 MOL1         0.0783
     115    O28     24.435408   14.833082   23.270245 O.3        1 MOL1        -0.5519
     116    H55     24.122010   14.166001   23.920823 H          1 MOL1         0.3769
     117    C34     23.708197   15.974957   21.240847 C.3        1 MOL1         0.1018
     118    H56     24.543129   15.463225   20.744286 H          1 MOL1         0.0783
     119    C35     22.532415   16.162344   20.241660 C.3        1 MOL1         0.1043
     120    H57     21.782361   16.796005   20.730784 H          1 MOL1         0.0783
     121    O29     21.946959   14.870559   19.940906 O.3        1 MOL1        -0.3740
     122    C36     22.903864   16.847600   18.900369 C.3        1 MOL1         0.0138
     123    H58     22.770272   17.930320   19.009487 H          1 MOL1         0.0794
     124    H59     22.190748   16.519666   18.132217 H          1 MOL1         0.0794
     125    O30     24.241832   16.570838   18.472938 O.3        1 MOL1        -0.5486
     126    H60     24.833213   17.173842   18.979673 H          1 MOL1         0.3769
     127    C1      17.206924   17.361633   25.080250 C.2        1 MOL1         0.6173
     128    O1      16.172968   17.856885   25.491107 O.co2      1 MOL1        -0.6755
     129    O2      17.327596   16.167306   24.878141 O.co2      1 MOL1        -0.6755
     130    C2      18.292750   18.293787   24.674956 C.2        1 MOL1        -0.1504
     131    H1      18.051554   19.352585   24.734306 H          1 MOL1         0.0814
     132    C3      19.512028   17.897667   24.244457 C.2        1 MOL1        -0.1394
     133    H2      19.765638   16.839374   24.189301 H          1 MOL1         0.0817
     134    C4      20.584104   18.855535   23.765484 C.3        1 MOL1        -0.1849
     135    H3      20.119783   19.698278   23.236779 H          1 MOL1         0.0736
     136    H4      21.218086   18.345630   23.027925 H          1 MOL1         0.0736
     137    C5      21.481036   19.386285   24.905600 C.3        1 MOL1        -0.1866
     138    H5      21.959941   18.544722   25.424455 H          1 MOL1         0.0738
     139    H6      22.286579   19.985622   24.467593 H          1 MOL1         0.0738
     140    C6      20.720263   20.263049   25.921999 C.3        1 MOL1        -0.2879
     141    H7      19.989066   19.670070   26.485547 H          1 MOL1         0.0750
     142    H8      21.416759   20.709843   26.642934 H          1 MOL1         0.0750
     143    H9      20.185013   21.076609   25.417002 H          1 MOL1         0.0750
@<TRIPOS>BOND
    1     1     2    1
    2     1     3    1
    3     1     4    1
    4     4     5    1
    5     4     6    1
    6     6     7    1
    7     4     8    1
    8     8     9    1
    9     8    10    1
   10    10    11    1
   11     8    12    1
   12    12    13    1
   13    12    14    1
   14    14    15    1
   15     1    16    1
   16    14    16    1
   17    14    17    1
   18    17    18    1
   19    17    19    1
   20    17    20    1
   21    20    21    1
   22    22    23    1
   23    22    24    1
   24    22    25    1
   25    25    26    1
   26    25    27    1
   27    27    28    1
   28    25    29    1
   29    29    30    1
   30    29    31    1
   31    31    32    1
   32     3    33    1
   33    29    33    1
   34    33    34    1
   35    33    35    1
   36    35    36    1
   37    22    37    1
   38    35    37    1
   39    35    38    1
   40    38    39    1
   41    38    40    1
   42    38    41    1
   43    41    42    1
   44    43    44    1
   45    43    45    1
   46    43    46    1
   47    46    47    1
   48    46    48    1
   49    48    49    1
   50    46    50    1
   51    50    51    1
   52    50    52    1
   53    52    53    1
   54    24    54    1
   55    50    54    1
   56    54    55    1
   57    54    56    1
   58    56    57    1
   59    43    58    1
   60    56    58    1
   61    56    59    1
   62    59    60    1
   63    59    61    1
   64    59    62    1
   65    62    63    1
   66    64    65    1
   67    64    66    1
   68    64    67    1
   69    67    68    1
   70    67    69    1
   71    69    70    1
   72    67    71    1
   73    71    72    1
   74    71    73    1
   75    73    74    1
   76    45    75    1
   77    71    75    1
   78    75    76    1
   79    75    77    1
   80    77    78    1
   81    64    79    1
   82    77    79    1
   83    77    80    1
   84    80    81    1
   85    80    82    1
   86    80    83    1
   87    83    84    1
   88    85    86    1
   89    85    87    1
   90    85    88    1
   91    88    89    1
   92    88    90    1
   93    90    91    1
   94    88    92    1
   95    92    93    1
   96    92    94    1
   97    94    95    1
   98    66    96    1
   99    92    96    1
  100    96    97    1
  101    96    98    1
  102    98    99    1
  103    85   100    1
  104    98   100    1
  105    98   101    1
  106   101   102    1
  107   101   103    1
  108   101   104    1
  109   104   105    1
  110   106   107    1
  111    12   108    1
  112   106   108    1
  113   106   109    1
  114   109   110    1
  115   109   111    1
  116   111   112    1
  117   109   113    1
  118   113   114    1
  119   113   115    1
  120   115   116    1
  121    87   117    1
  122   113   117    1
  123   117   118    1
  124   117   119    1
  125   119   120    1
  126   106   121    1
  127   119   121    1
  128   119   122    1
  129   122   123    1
  130   122   124    1
  131   122   125    1
  132   125   126    1
  133   127   128    1
  134   127   129    2
  135   127   130    1
  136   130   131    1
  137   130   132    2
  138   132   133    1
  139   132   134    1
  140   134   135    1
  141   134   136    1
  142   134   137    1
  143   137   138    1
  144   137   139    1
  145   137   140    1
  146   140   141    1
  147   140   142    1
  148   140   143    1
@<TRIPOS>SUBSTRUCTURE
       1 MOL1            1 RESIDUE      1      MOL     
       2 MOL1          143 RESIDUE      1      MOL     
@<SCITEGIC>MOL_PROPERTY
feprocess Rank
SciTegic.value.IntegerValue
199

@<SCITEGIC>MOL_PROPERTY
Conf_Id
SciTegic.value.IntegerValue
20

@<SCITEGIC>MOL_PROPERTY
Probability
SciTegic.value.DoubleValue
0.00

@<SCITEGIC>MOL_PROPERTY
G
SciTegic.value.DoubleValue
509.715

@<SCITEGIC>MOL_PROPERTY
E
SciTegic.value.DoubleValue
328.541

@<SCITEGIC>MOL_PROPERTY
-TS
SciTegic.value.DoubleValue
181.174

@<SCITEGIC>MOL_PROPERTY
U+W
SciTegic.value.DoubleValue
202.452

@<SCITEGIC>MOL_PROPERTY
U
SciTegic.value.DoubleValue
280.799

@<SCITEGIC>MOL_PROPERTY
W
SciTegic.value.DoubleValue
-78.346

@<SCITEGIC>MOL_PROPERTY
W(PB)
SciTegic.value.DoubleValue
-84.337

@<SCITEGIC>MOL_PROPERTY
W(SA)
SciTegic.value.DoubleValue
5.991

@<SCITEGIC>MOL_PROPERTY
Valence
SciTegic.value.DoubleValue
151.965

@<SCITEGIC>MOL_PROPERTY
Coulomb
SciTegic.value.DoubleValue
149.892

@<SCITEGIC>MOL_PROPERTY
VdW
SciTegic.value.DoubleValue
-21.058

@<SCITEGIC>MOL_PROPERTY
VdW6
SciTegic.value.DoubleValue
-177.885

@<SCITEGIC>MOL_PROPERTY
VdW12
SciTegic.value.DoubleValue
156.827

@<SCITEGIC>MOL_PROPERTY
Bond
SciTegic.value.DoubleValue
5.178

@<SCITEGIC>MOL_PROPERTY
Angle
SciTegic.value.DoubleValue
18.183

@<SCITEGIC>MOL_PROPERTY
Pdih
SciTegic.value.DoubleValue
128.568

@<SCITEGIC>MOL_PROPERTY
Idih
SciTegic.value.DoubleValue
0.037

@<SCITEGIC>MOL_PROPERTY
Tether
SciTegic.value.DoubleValue
0.000

@<TRIPOS>MOLECULE
CD_guest-s19_fast_vm2_rndm.mol2 : feprocess host+ligand conformer 200
         143         148           2
SMALL
USER_CHARGES
 
@<TRIPOS>ATOM
       1    C1      16.075306   15.393520   20.308546 C.3        1 MOL1         0.2972
       2    H1      15.169389   15.299000   19.697249 H          1 MOL1         0.0751
       3    O1      15.797580   16.111500   21.523113 O.3        1 MOL1        -0.3740
       4    C2      16.594386   13.980126   20.685233 C.3        1 MOL1         0.1003
       5    H2      16.707760   13.421180   19.747245 H          1 MOL1         0.0783
       6    O2      15.639024   13.309993   21.520433 O.3        1 MOL1        -0.5519
       7    H3      15.414379   13.955187   22.229850 H          1 MOL1         0.3769
       8    C3      17.978354   14.008121   21.386229 C.3        1 MOL1         0.1053
       9    H4      17.848355   14.407558   22.401600 H          1 MOL1         0.0783
      10    O3      18.469268   12.664021   21.442292 O.3        1 MOL1        -0.5519
      11    H5      17.749078   12.141727   21.857874 H          1 MOL1         0.3769
      12    C4      18.979183   14.923525   20.632709 C.3        1 MOL1         0.1018
      13    H6      19.237685   14.452377   19.675299 H          1 MOL1         0.0783
      14    C5      18.341782   16.308200   20.345659 C.3        1 MOL1         0.1043
      15    H7      18.113029   16.798193   21.300961 H          1 MOL1         0.0783
      16    O4      17.121939   16.092939   19.596328 O.3        1 MOL1        -0.3740
      17    C6      19.239987   17.277101   19.539396 C.3        1 MOL1         0.0138
      18    H8      19.934786   17.762389   20.236401 H          1 MOL1         0.0794
      19    H9      18.609996   18.070445   19.117161 H          1 MOL1         0.0794
      20    O5      19.967560   16.619020   18.494558 O.3        1 MOL1        -0.5486
      21    H10     20.521754   15.924388   18.914968 H          1 MOL1         0.3769
      22    C7      14.666053   20.111632   21.947691 C.3        1 MOL1         0.2972
      23    H11     14.103320   21.047054   22.063686 H          1 MOL1         0.0751
      24    O6      16.086277   20.358619   21.909710 O.3        1 MOL1        -0.3740
      25    C8      14.317943   19.174334   23.122605 C.3        1 MOL1         0.1003
      26    H12     13.230036   19.028352   23.105778 H          1 MOL1         0.0783
      27    O7      14.690651   19.782704   24.369972 O.3        1 MOL1        -0.5519
      28    H13     15.356700   20.481798   24.158324 H          1 MOL1         0.3769
      29    C9      14.977107   17.785737   22.970276 C.3        1 MOL1         0.1053
      30    H14     16.053645   17.907272   23.154345 H          1 MOL1         0.0783
      31    O8      14.408848   16.912868   23.954034 O.3        1 MOL1        -0.5519
      32    H15     14.576568   17.356231   24.813696 H          1 MOL1         0.3769
      33    C10     14.803457   17.170862   21.551797 C.3        1 MOL1         0.1018
      34    H16     13.794805   16.745630   21.477694 H          1 MOL1         0.0783
      35    C11     15.002441   18.227844   20.409670 C.3        1 MOL1         0.1043
      36    H17     16.075569   18.436631   20.326801 H          1 MOL1         0.0783
      37    O9      14.296594   19.455075   20.725377 O.3        1 MOL1        -0.3740
      38    C12     14.475978   17.816171   19.006890 C.3        1 MOL1         0.0138
      39    H18     15.206819   17.172405   18.505536 H          1 MOL1         0.0794
      40    H19     14.394560   18.720782   18.389085 H          1 MOL1         0.0794
      41    O10     13.206105   17.156600   19.073130 O.3        1 MOL1        -0.5486
      42    H20     12.891679   17.020548   18.152662 H          1 MOL1         0.3769
      43    C13     18.511930   23.738517   21.157991 C.3        1 MOL1         0.2972
      44    H21     18.793658   24.754109   20.851959 H          1 MOL1         0.0751
      45    O11     19.667028   22.972747   21.545303 O.3        1 MOL1        -0.3740
      46    C14     17.559090   23.813635   22.380161 C.3        1 MOL1         0.1003
      47    H22     16.700676   24.432811   22.088958 H          1 MOL1         0.0783
      48    O12     18.225415   24.427797   23.493144 O.3        1 MOL1        -0.5519
      49    H23     19.172864   24.158812   23.434254 H          1 MOL1         0.3769
      50    C15     17.023004   22.414963   22.771673 C.3        1 MOL1         0.1053
      51    H24     17.858275   21.811933   23.149145 H          1 MOL1         0.0783
      52    O13     16.022888   22.552934   23.786440 O.3        1 MOL1        -0.5519
      53    H25     16.415174   23.165609   24.447643 H          1 MOL1         0.3769
      54    C16     16.430322   21.708279   21.531595 C.3        1 MOL1         0.1018
      55    H26     15.549555   22.275570   21.201821 H          1 MOL1         0.0783
      56    C17     17.449044   21.679171   20.362728 C.3        1 MOL1         0.1043
      57    H27     18.323468   21.093245   20.676012 H          1 MOL1         0.0783
      58    O14     17.850306   23.043832   20.076947 O.3        1 MOL1        -0.3740
      59    C18     16.907482   21.051344   19.052065 C.3        1 MOL1         0.0138
      60    H28     17.035197   19.963725   19.105592 H          1 MOL1         0.0794
      61    H29     17.524257   21.401558   18.214007 H          1 MOL1         0.0794
      62    O15     15.531579   21.364315   18.805661 O.3        1 MOL1        -0.5486
      63    H30     14.993259   20.831275   19.436204 H          1 MOL1         0.3769
      64    C19     23.736726   22.541569   20.741742 C.3        1 MOL1         0.2972
      65    H31     24.767333   22.651627   20.380418 H          1 MOL1         0.0751
      66    O16     23.530876   21.277152   21.392453 O.3        1 MOL1        -0.3740
      67    C20     23.371868   23.662434   21.748565 C.3        1 MOL1         0.1003
      68    H32     23.494405   24.621613   21.229022 H          1 MOL1         0.0783
      69    O17     24.238445   23.629907   22.894943 O.3        1 MOL1        -0.5519
      70    H33     24.197529   22.714085   23.270425 H          1 MOL1         0.3769
      71    C21     21.893493   23.544370   22.195671 C.3        1 MOL1         0.1053
      72    H34     21.799950   22.642987   22.816716 H          1 MOL1         0.0783
      73    O18     21.537933   24.702153   22.959081 O.3        1 MOL1        -0.5519
      74    H35     22.259647   24.810478   23.616317 H          1 MOL1         0.3769
      75    C22     20.928808   23.399093   20.990863 C.3        1 MOL1         0.1018
      76    H36     20.853654   24.375734   20.495094 H          1 MOL1         0.0783
      77    C23     21.423674   22.334916   19.969124 C.3        1 MOL1         0.1043
      78    H37     21.347661   21.346021   20.440116 H          1 MOL1         0.0783
      79    O19     22.807640   22.612268   19.639976 O.3        1 MOL1        -0.3740
      80    C24     20.627826   22.256538   18.641784 C.3        1 MOL1         0.0138
      81    H38     19.797583   21.553549   18.776080 H          1 MOL1         0.0794
      82    H39     21.280468   21.827883   17.869556 H          1 MOL1         0.0794
      83    O20     20.122006   23.522913   18.206528 O.3        1 MOL1        -0.5486
      84    H40     19.265942   23.656678   18.674948 H          1 MOL1         0.3769
      85    C25     25.150295   17.689278   22.323791 C.3        1 MOL1         0.2972
      86    H41     25.720117   16.786760   22.580583 H          1 MOL1         0.0751
      87    O21     23.775980   17.388891   22.014591 O.3        1 MOL1        -0.3740
      88    C26     25.165695   18.684657   23.506715 C.3        1 MOL1         0.1003
      89    H42     26.202823   19.009850   23.660766 H          1 MOL1         0.0783
      90    O22     24.677968   18.053183   24.701471 O.3        1 MOL1        -0.5519
      91    H43     24.146217   17.270041   24.416201 H          1 MOL1         0.3769
      92    C27     24.313350   19.926512   23.163617 C.3        1 MOL1         0.1053
      93    H44     23.266997   19.600371   23.103352 H          1 MOL1         0.0783
      94    O23     24.447704   20.913057   24.192513 O.3        1 MOL1        -0.5519
      95    H45     24.315434   20.421212   25.033133 H          1 MOL1         0.3769
      96    C28     24.698850   20.543360   21.795825 C.3        1 MOL1         0.1018
      97    H46     25.571888   21.194508   21.936210 H          1 MOL1         0.0783
      98    C29     24.970536   19.491860   20.677899 C.3        1 MOL1         0.1043
      99    H47     23.994725   19.138142   20.324988 H          1 MOL1         0.0783
     100    O24     25.722824   18.357018   21.181693 O.3        1 MOL1        -0.3740
     101    C30     25.712350   20.062534   19.445736 C.3        1 MOL1         0.0138
     102    H48     25.024607   20.718685   18.895546 H          1 MOL1         0.0794
     103    H49     25.971642   19.230914   18.776640 H          1 MOL1         0.0794
     104    O25     26.889792   20.790402   19.814610 O.3        1 MOL1        -0.5486
     105    H50     27.353391   21.047207   18.987589 H          1 MOL1         0.3769
     106    C31     21.233023   14.189377   21.208688 C.3        1 MOL1         0.2972
     107    H51     20.846278   13.202526   20.926110 H          1 MOL1         0.0751
     108    O26     20.155886   15.119688   21.449323 O.3        1 MOL1        -0.3740
     109    C32     22.113896   14.054179   22.480718 C.3        1 MOL1         0.1003
     110    H52     22.935782   13.372543   22.226483 H          1 MOL1         0.0783
     111    O27     21.380494   13.494487   23.579507 O.3        1 MOL1        -0.5519
     112    H53     20.697997   14.168706   23.849968 H          1 MOL1         0.3769
     113    C33     22.734474   15.413463   22.872941 C.3        1 MOL1         0.1053
     114    H54     21.920982   16.094909   23.153347 H          1 MOL1         0.0783
     115    O28     23.630045   15.242851   23.976793 O.3        1 MOL1        -0.5519
     116    H55     23.137976   14.681008   24.616942 H          1 MOL1         0.3769
     117    C34     23.484884   16.026389   21.669360 C.3        1 MOL1         0.1018
     118    H56     24.393711   15.442041   21.473416 H          1 MOL1         0.0783
     119    C35     22.600902   16.054477   20.394489 C.3        1 MOL1         0.1043
     120    H57     21.781451   16.754904   20.586331 H          1 MOL1         0.0783
     121    O29     22.052924   14.733991   20.146783 O.3        1 MOL1        -0.3740
     122    C36     23.326700   16.541719   19.111619 C.3        1 MOL1         0.0138
     123    H58     23.166262   17.622075   19.009796 H          1 MOL1         0.0794
     124    H59     22.852342   16.072979   18.239065 H          1 MOL1         0.0794
     125    O30     24.732224   16.261268   19.112229 O.3        1 MOL1        -0.5486
     126    H60     25.150018   16.855440   19.778229 H          1 MOL1         0.3769
     127    C1      19.233728   16.532706   24.239366 C.2        1 MOL1         0.6173
     128    O1      19.807104   15.533677   24.630573 O.co2      1 MOL1        -0.6755
     129    O2      18.104758   16.523697   23.790448 O.co2      1 MOL1        -0.6755
     130    C2      19.973912   17.819988   24.321741 C.2        1 MOL1        -0.1504
     131    H1      20.967903   17.767981   24.759683 H          1 MOL1         0.0814
     132    C3      19.472511   19.005226   23.907480 C.2        1 MOL1        -0.1394
     133    H2      18.474739   19.071489   23.473689 H          1 MOL1         0.0817
     134    C4      20.218625   20.312466   24.044605 C.3        1 MOL1        -0.1849
     135    H3      19.990411   20.961511   23.192123 H          1 MOL1         0.0736
     136    H4      21.300289   20.134883   24.020231 H          1 MOL1         0.0736
     137    C5      19.845466   21.017099   25.364241 C.3        1 MOL1        -0.1866
     138    H5      18.763178   21.203914   25.392558 H          1 MOL1         0.0738
     139    H6      20.074850   20.352693   26.208651 H          1 MOL1         0.0738
     140    C6      20.603656   22.346166   25.542044 C.3        1 MOL1        -0.2879
     141    H7      20.329605   23.056603   24.755126 H          1 MOL1         0.0750
     142    H8      20.359300   22.804500   26.508743 H          1 MOL1         0.0750
     143    H9      21.689697   22.189521   25.503364 H          1 MOL1         0.0750
@<TRIPOS>BOND
    1     1     2    1
    2     1     3    1
    3     1     4    1
    4     4     5    1
    5     4     6    1
    6     6     7    1
    7     4     8    1
    8     8     9    1
    9     8    10    1
   10    10    11    1
   11     8    12    1
   12    12    13    1
   13    12    14    1
   14    14    15    1
   15     1    16    1
   16    14    16    1
   17    14    17    1
   18    17    18    1
   19    17    19    1
   20    17    20    1
   21    20    21    1
   22    22    23    1
   23    22    24    1
   24    22    25    1
   25    25    26    1
   26    25    27    1
   27    27    28    1
   28    25    29    1
   29    29    30    1
   30    29    31    1
   31    31    32    1
   32     3    33    1
   33    29    33    1
   34    33    34    1
   35    33    35    1
   36    35    36    1
   37    22    37    1
   38    35    37    1
   39    35    38    1
   40    38    39    1
   41    38    40    1
   42    38    41    1
   43    41    42    1
   44    43    44    1
   45    43    45    1
   46    43    46    1
   47    46    47    1
   48    46    48    1
   49    48    49    1
   50    46    50    1
   51    50    51    1
   52    50    52    1
   53    52    53    1
   54    24    54    1
   55    50    54    1
   56    54    55    1
   57    54    56    1
   58    56    57    1
   59    43    58    1
   60    56    58    1
   61    56    59    1
   62    59    60    1
   63    59    61    1
   64    59    62    1
   65    62    63    1
   66    64    65    1
   67    64    66    1
   68    64    67    1
   69    67    68    1
   70    67    69    1
   71    69    70    1
   72    67    71    1
   73    71    72    1
   74    71    73    1
   75    73    74    1
   76    45    75    1
   77    71    75    1
   78    75    76    1
   79    75    77    1
   80    77    78    1
   81    64    79    1
   82    77    79    1
   83    77    80    1
   84    80    81    1
   85    80    82    1
   86    80    83    1
   87    83    84    1
   88    85    86    1
   89    85    87    1
   90    85    88    1
   91    88    89    1
   92    88    90    1
   93    90    91    1
   94    88    92    1
   95    92    93    1
   96    92    94    1
   97    94    95    1
   98    66    96    1
   99    92    96    1
  100    96    97    1
  101    96    98    1
  102    98    99    1
  103    85   100    1
  104    98   100    1
  105    98   101    1
  106   101   102    1
  107   101   103    1
  108   101   104    1
  109   104   105    1
  110   106   107    1
  111    12   108    1
  112   106   108    1
  113   106   109    1
  114   109   110    1
  115   109   111    1
  116   111   112    1
  117   109   113    1
  118   113   114    1
  119   113   115    1
  120   115   116    1
  121    87   117    1
  122   113   117    1
  123   117   118    1
  124   117   119    1
  125   119   120    1
  126   106   121    1
  127   119   121    1
  128   119   122    1
  129   122   123    1
  130   122   124    1
  131   122   125    1
  132   125   126    1
  133   127   128    1
  134   127   129    2
  135   127   130    1
  136   130   131    1
  137   130   132    2
  138   132   133    1
  139   132   134    1
  140   134   135    1
  141   134   136    1
  142   134   137    1
  143   137   138    1
  144   137   139    1
  145   137   140    1
  146   140   141    1
  147   140   142    1
  148   140   143    1
@<TRIPOS>SUBSTRUCTURE
       1 MOL1            1 RESIDUE      1      MOL     
       2 MOL1          143 RESIDUE      1      MOL     
@<SCITEGIC>MOL_PROPERTY
feprocess Rank
SciTegic.value.IntegerValue
200

@<SCITEGIC>MOL_PROPERTY
Conf_Id
SciTegic.value.IntegerValue
462

@<SCITEGIC>MOL_PROPERTY
Probability
SciTegic.value.DoubleValue
0.00

@<SCITEGIC>MOL_PROPERTY
G
SciTegic.value.DoubleValue
510.008

@<SCITEGIC>MOL_PROPERTY
E
SciTegic.value.DoubleValue
327.900

@<SCITEGIC>MOL_PROPERTY
-TS
SciTegic.value.DoubleValue
182.108

@<SCITEGIC>MOL_PROPERTY
U+W
SciTegic.value.DoubleValue
201.812

@<SCITEGIC>MOL_PROPERTY
U
SciTegic.value.DoubleValue
275.870

@<SCITEGIC>MOL_PROPERTY
W
SciTegic.value.DoubleValue
-74.058

@<SCITEGIC>MOL_PROPERTY
W(PB)
SciTegic.value.DoubleValue
-80.003

@<SCITEGIC>MOL_PROPERTY
W(SA)
SciTegic.value.DoubleValue
5.945

@<SCITEGIC>MOL_PROPERTY
Valence
SciTegic.value.DoubleValue
148.894

@<SCITEGIC>MOL_PROPERTY
Coulomb
SciTegic.value.DoubleValue
150.652

@<SCITEGIC>MOL_PROPERTY
VdW
SciTegic.value.DoubleValue
-23.676

@<SCITEGIC>MOL_PROPERTY
VdW6
SciTegic.value.DoubleValue
-175.658

@<SCITEGIC>MOL_PROPERTY
VdW12
SciTegic.value.DoubleValue
151.983

@<SCITEGIC>MOL_PROPERTY
Bond
SciTegic.value.DoubleValue
4.901

@<SCITEGIC>MOL_PROPERTY
Angle
SciTegic.value.DoubleValue
15.852

@<SCITEGIC>MOL_PROPERTY
Pdih
SciTegic.value.DoubleValue
128.138

@<SCITEGIC>MOL_PROPERTY
Idih
SciTegic.value.DoubleValue
0.003

@<SCITEGIC>MOL_PROPERTY
Tether
SciTegic.value.DoubleValue
0.000

@<TRIPOS>MOLECULE
CD_guest-s19_fast_vm2_rndm.mol2 : feprocess host+ligand conformer 201
         143         148           2
SMALL
USER_CHARGES
 
@<TRIPOS>ATOM
       1    C1      16.130437   15.235881   20.419000 C.3        1 MOL1         0.2972
       2    H1      15.131119   15.109782   19.982944 H          1 MOL1         0.0751
       3    O1      16.276379   16.503642   21.083398 O.3        1 MOL1        -0.3740
       4    C2      16.421274   14.141747   21.476542 C.3        1 MOL1         0.1003
       5    H2      16.389422   13.169745   20.967462 H          1 MOL1         0.0783
       6    O2      15.436249   14.163412   22.522528 O.3        1 MOL1        -0.5519
       7    H3      15.307740   15.110157   22.785786 H          1 MOL1         0.3769
       8    C3      17.840926   14.332116   22.066906 C.3        1 MOL1         0.1053
       9    H4      17.852273   15.270314   22.639388 H          1 MOL1         0.0783
      10    O3      18.155044   13.236768   22.933534 O.3        1 MOL1        -0.5519
      11    H5      17.353315   13.111509   23.488444 H          1 MOL1         0.3769
      12    C4      18.904591   14.440754   20.946055 C.3        1 MOL1         0.1018
      13    H6      19.046915   13.444472   20.507612 H          1 MOL1         0.0783
      14    C5      18.495084   15.442507   19.828609 C.3        1 MOL1         0.1043
      15    H7      18.519172   16.456588   20.246180 H          1 MOL1         0.0783
      16    O4      17.146167   15.138236   19.396809 O.3        1 MOL1        -0.3740
      17    C6      19.418545   15.445718   18.582358 C.3        1 MOL1         0.0138
      18    H8      20.229998   16.163121   18.749433 H          1 MOL1         0.0794
      19    H9      18.844336   15.819154   17.724127 H          1 MOL1         0.0794
      20    O5      19.975108   14.159477   18.284180 O.3        1 MOL1        -0.5486
      21    H10     20.737750   14.033877   18.894922 H          1 MOL1         0.3769
      22    C7      14.576072   20.208271   21.616385 C.3        1 MOL1         0.2972
      23    H11     13.926816   21.089584   21.694005 H          1 MOL1         0.0751
      24    O6      15.956548   20.535776   21.855434 O.3        1 MOL1        -0.3740
      25    C8      14.161290   19.154230   22.669646 C.3        1 MOL1         0.1003
      26    H12     13.128865   18.851582   22.451628 H          1 MOL1         0.0783
      27    O7      14.226660   19.714713   23.990993 O.3        1 MOL1        -0.5519
      28    H13     14.960415   20.379609   23.984866 H          1 MOL1         0.3769
      29    C9      15.062284   17.902201   22.568101 C.3        1 MOL1         0.1053
      30    H14     16.077139   18.186579   22.877603 H          1 MOL1         0.0783
      31    O8      14.563777   16.881657   23.439917 O.3        1 MOL1        -0.5519
      32    H15     14.389135   17.340352   24.291865 H          1 MOL1         0.3769
      33    C10     15.130806   17.368287   21.116224 C.3        1 MOL1         0.1018
      34    H16     14.198458   16.832429   20.894901 H          1 MOL1         0.0783
      35    C11     15.370203   18.491312   20.067292 C.3        1 MOL1         0.1043
      36    H17     16.408491   18.831067   20.171568 H          1 MOL1         0.0783
      37    O9      14.474377   19.608280   20.308603 O.3        1 MOL1        -0.3740
      38    C12     15.193806   18.024531   18.603496 C.3        1 MOL1         0.0138
      39    H18     16.037184   17.370167   18.344773 H          1 MOL1         0.0794
      40    H19     15.252748   18.902741   17.946810 H          1 MOL1         0.0794
      41    O10     13.955448   17.330824   18.402244 O.3        1 MOL1        -0.5486
      42    H20     13.889688   17.111536   17.447453 H          1 MOL1         0.3769
      43    C13     18.498475   23.882218   21.830341 C.3        1 MOL1         0.2972
      44    H21     18.832502   24.925145   21.753493 H          1 MOL1         0.0751
      45    O11     19.627218   23.009309   22.020330 O.3        1 MOL1        -0.3740
      46    C14     17.554422   23.723067   23.051106 C.3        1 MOL1         0.1003
      47    H22     16.731656   24.439347   22.928648 H          1 MOL1         0.0783
      48    O12     18.259005   24.010990   24.267278 O.3        1 MOL1        -0.5519
      49    H23     19.144617   23.594944   24.165108 H          1 MOL1         0.3769
      50    C15     16.947246   22.302495   23.114770 C.3        1 MOL1         0.1053
      51    H24     17.754176   21.587130   23.327123 H          1 MOL1         0.0783
      52    O13     15.960417   22.250477   24.151684 O.3        1 MOL1        -0.5519
      53    H25     16.385047   22.674781   24.929969 H          1 MOL1         0.3769
      54    C16     16.312904   21.923464   21.758970 C.3        1 MOL1         0.1018
      55    H26     15.438044   22.564214   21.587129 H          1 MOL1         0.0783
      56    C17     17.327931   22.111158   20.599594 C.3        1 MOL1         0.1043
      57    H27     18.170038   21.426195   20.762910 H          1 MOL1         0.0783
      58    O14     17.800666   23.481905   20.627455 O.3        1 MOL1        -0.3740
      59    C18     16.765405   21.816683   19.185235 C.3        1 MOL1         0.0138
      60    H28     16.876309   20.744131   18.982797 H          1 MOL1         0.0794
      61    H29     17.384283   22.342837   18.446807 H          1 MOL1         0.0794
      62    O15     15.391270   22.192063   19.034101 O.3        1 MOL1        -0.5486
      63    H30     14.858030   21.441695   19.385120 H          1 MOL1         0.3769
      64    C19     23.495565   22.499836   20.460953 C.3        1 MOL1         0.2972
      65    H31     23.458710   22.765605   19.398912 H          1 MOL1         0.0751
      66    O16     24.826913   21.987570   20.730231 O.3        1 MOL1        -0.3740
      67    C20     23.254632   23.796196   21.304618 C.3        1 MOL1         0.1003
      68    H32     23.246710   24.635484   20.597205 H          1 MOL1         0.0783
      69    O17     24.274904   24.023498   22.293416 O.3        1 MOL1        -0.5519
      70    H33     24.552283   23.128444   22.616113 H          1 MOL1         0.3769
      71    C21     21.889820   23.789025   22.034316 C.3        1 MOL1         0.1053
      72    H34     21.976883   23.112715   22.896373 H          1 MOL1         0.0783
      73    O18     21.595896   25.115677   22.485288 O.3        1 MOL1        -0.5519
      74    H35     22.404172   25.407902   22.961510 H          1 MOL1         0.3769
      75    C22     20.745084   23.258654   21.140751 C.3        1 MOL1         0.1018
      76    H36     20.496698   24.018801   20.388248 H          1 MOL1         0.0783
      77    C23     21.113072   21.919930   20.438820 C.3        1 MOL1         0.1043
      78    H37     20.462849   21.148532   20.862159 H          1 MOL1         0.0783
      79    O19     22.475016   21.520736   20.732193 O.3        1 MOL1        -0.3740
      80    C24     20.861586   21.914065   18.907562 C.3        1 MOL1         0.0138
      81    H38     19.779033   21.840955   18.739719 H          1 MOL1         0.0794
      82    H39     21.311987   21.007279   18.481791 H          1 MOL1         0.0794
      83    O20     21.375619   23.080700   18.250489 O.3        1 MOL1        -0.5486
      84    H40     21.170805   22.996332   17.293818 H          1 MOL1         0.3769
      85    C25     24.885135   17.915306   22.186888 C.3        1 MOL1         0.2972
      86    H41     25.450144   17.053901   22.565831 H          1 MOL1         0.0751
      87    O21     23.505424   17.568817   21.985088 O.3        1 MOL1        -0.3740
      88    C26     24.977257   19.066949   23.231317 C.3        1 MOL1         0.1003
      89    H42     26.043507   19.201025   23.455492 H          1 MOL1         0.0783
      90    O22     24.296057   18.710498   24.444580 O.3        1 MOL1        -0.5519
      91    H43     23.772169   17.895292   24.249331 H          1 MOL1         0.3769
      92    C27     24.446827   20.417522   22.688608 C.3        1 MOL1         0.1053
      93    H44     23.358285   20.330066   22.584448 H          1 MOL1         0.0783
      94    O23     24.779463   21.452670   23.618254 O.3        1 MOL1        -0.5519
      95    H45     24.508709   21.096930   24.494206 H          1 MOL1         0.3769
      96    C28     25.103421   20.680217   21.308168 C.3        1 MOL1         0.1018
      97    H46     26.187108   20.653828   21.481250 H          1 MOL1         0.0783
      98    C29     24.794654   19.514688   20.333853 C.3        1 MOL1         0.1043
      99    H47     23.707711   19.372437   20.258388 H          1 MOL1         0.0783
     100    O24     25.410136   18.330802   20.903009 O.3        1 MOL1        -0.3740
     101    C30     25.350249   19.719588   18.903635 C.3        1 MOL1         0.0138
     102    H48     24.694713   20.425745   18.376307 H          1 MOL1         0.0794
     103    H49     25.299539   18.765195   18.362946 H          1 MOL1         0.0794
     104    O25     26.692632   20.219078   18.907710 O.3        1 MOL1        -0.5486
     105    H50     26.664021   21.104215   19.334368 H          1 MOL1         0.3769
     106    C31     21.243481   14.064061   21.530473 C.3        1 MOL1         0.2972
     107    H51     20.949095   13.015477   21.394119 H          1 MOL1         0.0751
     108    O26     20.097676   14.932555   21.578570 O.3        1 MOL1        -0.3740
     109    C32     21.993395   14.226541   22.876340 C.3        1 MOL1         0.1003
     110    H52     22.879890   13.579875   22.844736 H          1 MOL1         0.0783
     111    O27     21.150084   13.825103   23.967696 O.3        1 MOL1        -0.5519
     112    H53     20.218639   13.962241   23.668345 H          1 MOL1         0.3769
     113    C33     22.468705   15.686381   23.066504 C.3        1 MOL1         0.1053
     114    H54     21.583314   16.328157   23.171247 H          1 MOL1         0.0783
     115    O28     23.280618   15.778972   24.241839 O.3        1 MOL1        -0.5519
     116    H55     22.780289   15.293662   24.935046 H          1 MOL1         0.3769
     117    C34     23.269357   16.154446   21.829433 C.3        1 MOL1         0.1018
     118    H56     24.206619   15.583659   21.790762 H          1 MOL1         0.0783
     119    C35     22.492245   15.901868   20.509246 C.3        1 MOL1         0.1043
     120    H57     21.591620   16.521497   20.514011 H          1 MOL1         0.0783
     121    O29     22.101565   14.504881   20.452402 O.3        1 MOL1        -0.3740
     122    C36     23.276116   16.262591   19.222493 C.3        1 MOL1         0.0138
     123    H58     23.171706   17.341542   19.047457 H          1 MOL1         0.0794
     124    H59     22.804326   15.755623   18.370571 H          1 MOL1         0.0794
     125    O30     24.665365   15.920409   19.297137 O.3        1 MOL1        -0.5486
     126    H60     25.102330   16.624831   19.831088 H          1 MOL1         0.3769
     127    C1      19.892553   18.791560   19.896517 C.2        1 MOL1         0.6173
     128    O1      18.829235   19.185050   19.453857 O.co2      1 MOL1        -0.6755
     129    O2      20.868077   18.578146   19.202293 O.co2      1 MOL1        -0.6755
     130    C2      20.039171   18.567956   21.360548 C.2        1 MOL1        -0.1504
     131    H1      21.021591   18.253120   21.690569 H          1 MOL1         0.0814
     132    C3      19.045105   18.739490   22.259468 C.2        1 MOL1        -0.1394
     133    H2      18.060110   19.058213   21.929226 H          1 MOL1         0.0817
     134    C4      19.176426   18.477667   23.748176 C.3        1 MOL1        -0.1849
     135    H3      19.141264   17.394108   23.922201 H          1 MOL1         0.0736
     136    H4      18.304703   18.897273   24.267664 H          1 MOL1         0.0736
     137    C5      20.466687   19.044775   24.389892 C.3        1 MOL1        -0.1866
     138    H5      20.487914   18.764543   25.451576 H          1 MOL1         0.0738
     139    H6      21.352363   18.583707   23.934716 H          1 MOL1         0.0738
     140    C6      20.572326   20.578802   24.275328 C.3        1 MOL1        -0.2879
     141    H7      19.705331   21.069542   24.734640 H          1 MOL1         0.0750
     142    H8      21.478109   20.941554   24.777550 H          1 MOL1         0.0750
     143    H9      20.627881   20.883604   23.224883 H          1 MOL1         0.0750
@<TRIPOS>BOND
    1     1     2    1
    2     1     3    1
    3     1     4    1
    4     4     5    1
    5     4     6    1
    6     6     7    1
    7     4     8    1
    8     8     9    1
    9     8    10    1
   10    10    11    1
   11     8    12    1
   12    12    13    1
   13    12    14    1
   14    14    15    1
   15     1    16    1
   16    14    16    1
   17    14    17    1
   18    17    18    1
   19    17    19    1
   20    17    20    1
   21    20    21    1
   22    22    23    1
   23    22    24    1
   24    22    25    1
   25    25    26    1
   26    25    27    1
   27    27    28    1
   28    25    29    1
   29    29    30    1
   30    29    31    1
   31    31    32    1
   32     3    33    1
   33    29    33    1
   34    33    34    1
   35    33    35    1
   36    35    36    1
   37    22    37    1
   38    35    37    1
   39    35    38    1
   40    38    39    1
   41    38    40    1
   42    38    41    1
   43    41    42    1
   44    43    44    1
   45    43    45    1
   46    43    46    1
   47    46    47    1
   48    46    48    1
   49    48    49    1
   50    46    50    1
   51    50    51    1
   52    50    52    1
   53    52    53    1
   54    24    54    1
   55    50    54    1
   56    54    55    1
   57    54    56    1
   58    56    57    1
   59    43    58    1
   60    56    58    1
   61    56    59    1
   62    59    60    1
   63    59    61    1
   64    59    62    1
   65    62    63    1
   66    64    65    1
   67    64    66    1
   68    64    67    1
   69    67    68    1
   70    67    69    1
   71    69    70    1
   72    67    71    1
   73    71    72    1
   74    71    73    1
   75    73    74    1
   76    45    75    1
   77    71    75    1
   78    75    76    1
   79    75    77    1
   80    77    78    1
   81    64    79    1
   82    77    79    1
   83    77    80    1
   84    80    81    1
   85    80    82    1
   86    80    83    1
   87    83    84    1
   88    85    86    1
   89    85    87    1
   90    85    88    1
   91    88    89    1
   92    88    90    1
   93    90    91    1
   94    88    92    1
   95    92    93    1
   96    92    94    1
   97    94    95    1
   98    66    96    1
   99    92    96    1
  100    96    97    1
  101    96    98    1
  102    98    99    1
  103    85   100    1
  104    98   100    1
  105    98   101    1
  106   101   102    1
  107   101   103    1
  108   101   104    1
  109   104   105    1
  110   106   107    1
  111    12   108    1
  112   106   108    1
  113   106   109    1
  114   109   110    1
  115   109   111    1
  116   111   112    1
  117   109   113    1
  118   113   114    1
  119   113   115    1
  120   115   116    1
  121    87   117    1
  122   113   117    1
  123   117   118    1
  124   117   119    1
  125   119   120    1
  126   106   121    1
  127   119   121    1
  128   119   122    1
  129   122   123    1
  130   122   124    1
  131   122   125    1
  132   125   126    1
  133   127   128    1
  134   127   129    2
  135   127   130    1
  136   130   131    1
  137   130   132    2
  138   132   133    1
  139   132   134    1
  140   134   135    1
  141   134   136    1
  142   134   137    1
  143   137   138    1
  144   137   139    1
  145   137   140    1
  146   140   141    1
  147   140   142    1
  148   140   143    1
@<TRIPOS>SUBSTRUCTURE
       1 MOL1            1 RESIDUE      1      MOL     
       2 MOL1          143 RESIDUE      1      MOL     
@<SCITEGIC>MOL_PROPERTY
feprocess Rank
SciTegic.value.IntegerValue
201

@<SCITEGIC>MOL_PROPERTY
Conf_Id
SciTegic.value.IntegerValue
643

@<SCITEGIC>MOL_PROPERTY
Probability
SciTegic.value.DoubleValue
0.00

@<SCITEGIC>MOL_PROPERTY
G
SciTegic.value.DoubleValue
510.166

@<SCITEGIC>MOL_PROPERTY
E
SciTegic.value.DoubleValue
328.378

@<SCITEGIC>MOL_PROPERTY
-TS
SciTegic.value.DoubleValue
181.788

@<SCITEGIC>MOL_PROPERTY
U+W
SciTegic.value.DoubleValue
202.290

@<SCITEGIC>MOL_PROPERTY
U
SciTegic.value.DoubleValue
267.501

@<SCITEGIC>MOL_PROPERTY
W
SciTegic.value.DoubleValue
-65.211

@<SCITEGIC>MOL_PROPERTY
W(PB)
SciTegic.value.DoubleValue
-71.031

@<SCITEGIC>MOL_PROPERTY
W(SA)
SciTegic.value.DoubleValue
5.820

@<SCITEGIC>MOL_PROPERTY
Valence
SciTegic.value.DoubleValue
155.737

@<SCITEGIC>MOL_PROPERTY
Coulomb
SciTegic.value.DoubleValue
138.993

@<SCITEGIC>MOL_PROPERTY
VdW
SciTegic.value.DoubleValue
-27.229

@<SCITEGIC>MOL_PROPERTY
VdW6
SciTegic.value.DoubleValue
-188.424

@<SCITEGIC>MOL_PROPERTY
VdW12
SciTegic.value.DoubleValue
161.195

@<SCITEGIC>MOL_PROPERTY
Bond
SciTegic.value.DoubleValue
4.963

@<SCITEGIC>MOL_PROPERTY
Angle
SciTegic.value.DoubleValue
19.149

@<SCITEGIC>MOL_PROPERTY
Pdih
SciTegic.value.DoubleValue
131.622

@<SCITEGIC>MOL_PROPERTY
Idih
SciTegic.value.DoubleValue
0.003

@<SCITEGIC>MOL_PROPERTY
Tether
SciTegic.value.DoubleValue
0.000

@<TRIPOS>MOLECULE
CD_guest-s19_fast_vm2_rndm.mol2 : feprocess host+ligand conformer 202
         143         148           2
SMALL
USER_CHARGES
 
@<TRIPOS>ATOM
       1    C1      16.335747   14.939159   21.853124 C.3        1 MOL1         0.2972
       2    H1      15.255425   14.833190   22.014291 H          1 MOL1         0.0751
       3    O1      16.754822   16.316602   21.919560 O.3        1 MOL1        -0.3740
       4    C2      17.106677   14.152122   22.939770 C.3        1 MOL1         0.1003
       5    H2      16.833317   13.093561   22.841231 H          1 MOL1         0.0783
       6    O2      16.744415   14.617660   24.249654 O.3        1 MOL1        -0.5519
       7    H3      16.511842   15.575961   24.161990 H          1 MOL1         0.3769
       8    C3      18.632153   14.274857   22.724439 C.3        1 MOL1         0.1053
       9    H4      18.918111   15.316222   22.920838 H          1 MOL1         0.0783
      10    O3      19.320628   13.408373   23.633610 O.3        1 MOL1        -0.5519
      11    H5      18.910949   13.585339   24.509364 H          1 MOL1         0.3769
      12    C4      19.038727   13.936609   21.270109 C.3        1 MOL1         0.1018
      13    H6      19.053009   12.845536   21.148080 H          1 MOL1         0.0783
      14    C5      18.110532   14.595481   20.209812 C.3        1 MOL1         0.1043
      15    H7      18.335448   15.667437   20.196428 H          1 MOL1         0.0783
      16    O4      16.714691   14.413628   20.564340 O.3        1 MOL1        -0.3740
      17    C6      18.332971   14.073962   18.771336 C.3        1 MOL1         0.0138
      18    H8      19.296721   14.458337   18.409914 H          1 MOL1         0.0794
      19    H9      17.553606   14.495097   18.122324 H          1 MOL1         0.0794
      20    O5      18.319499   12.641984   18.707093 O.3        1 MOL1        -0.5486
      21    H10     18.400355   12.386250   17.762495 H          1 MOL1         0.3769
      22    C7      15.082065   20.169828   21.689261 C.3        1 MOL1         0.2972
      23    H11     14.335812   20.968673   21.587687 H          1 MOL1         0.0751
      24    O6      16.408100   20.727905   21.783376 O.3        1 MOL1        -0.3740
      25    C8      14.800631   19.356763   22.980081 C.3        1 MOL1         0.1003
      26    H12     13.771107   18.981106   22.916632 H          1 MOL1         0.0783
      27    O7      14.929323   20.195644   24.136725 O.3        1 MOL1        -0.5519
      28    H13     15.696461   20.783839   23.955461 H          1 MOL1         0.3769
      29    C9      15.747038   18.140197   23.096825 C.3        1 MOL1         0.1053
      30    H14     16.769682   18.512477   23.243011 H          1 MOL1         0.0783
      31    O8      15.353914   17.332397   24.211904 O.3        1 MOL1        -0.5519
      32    H15     15.217115   17.966005   24.950763 H          1 MOL1         0.3769
      33    C10     15.717220   17.304982   21.798003 C.3        1 MOL1         0.1018
      34    H16     14.723840   16.848403   21.696706 H          1 MOL1         0.0783
      35    C11     15.998515   18.197061   20.557901 C.3        1 MOL1         0.1043
      36    H17     17.008851   18.612406   20.647761 H          1 MOL1         0.0783
      37    O9      15.035979   19.281584   20.547202 O.3        1 MOL1        -0.3740
      38    C12     15.929017   17.458394   19.196829 C.3        1 MOL1         0.0138
      39    H18     16.910590   17.013592   18.990934 H          1 MOL1         0.0794
      40    H19     15.744885   18.198113   18.406674 H          1 MOL1         0.0794
      41    O10     14.925937   16.436322   19.161133 O.3        1 MOL1        -0.5486
      42    H20     15.323504   15.638049   19.580136 H          1 MOL1         0.3769
      43    C13     18.621416   23.937731   20.209651 C.3        1 MOL1         0.2972
      44    H21     18.421012   24.073965   19.140947 H          1 MOL1         0.0751
      45    O11     19.695327   24.848603   20.570792 O.3        1 MOL1        -0.3740
      46    C14     17.325639   24.309586   21.007072 C.3        1 MOL1         0.1003
      47    H22     16.583338   24.637025   20.267620 H          1 MOL1         0.0783
      48    O12     17.535662   25.365427   21.962109 O.3        1 MOL1        -0.5519
      49    H23     18.425939   25.198579   22.363803 H          1 MOL1         0.3769
      50    C15     16.723839   23.101972   21.764046 C.3        1 MOL1         0.1053
      51    H24     17.380350   22.883929   22.618161 H          1 MOL1         0.0783
      52    O13     15.415746   23.448042   22.231476 O.3        1 MOL1        -0.5519
      53    H25     15.525447   24.322570   22.666577 H          1 MOL1         0.3769
      54    C16     16.660509   21.831323   20.885106 C.3        1 MOL1         0.1018
      55    H26     15.850376   21.939511   20.151435 H          1 MOL1         0.0783
      56    C17     17.998082   21.557013   20.142444 C.3        1 MOL1         0.1043
      57    H27     18.385378   20.610740   20.523418 H          1 MOL1         0.0783
      58    O14     18.992171   22.565545   20.445561 O.3        1 MOL1        -0.3740
      59    C18     17.853652   21.369947   18.610766 C.3        1 MOL1         0.0138
      60    H28     17.375764   20.397551   18.430148 H          1 MOL1         0.0794
      61    H29     18.858912   21.319604   18.169742 H          1 MOL1         0.0794
      62    O15     17.082294   22.409924   17.994263 O.3        1 MOL1        -0.5486
      63    H30     17.039469   22.216947   17.032268 H          1 MOL1         0.3769
      64    C19     23.092764   22.806614   22.294669 C.3        1 MOL1         0.2972
      65    H31     24.084393   22.812460   22.765765 H          1 MOL1         0.0751
      66    O16     22.677331   21.461657   22.005676 O.3        1 MOL1        -0.3740
      67    C20     22.071374   23.460695   23.270186 C.3        1 MOL1         0.1003
      68    H32     22.489824   24.434448   23.556190 H          1 MOL1         0.0783
      69    O17     21.915665   22.660230   24.452781 O.3        1 MOL1        -0.5519
      70    H33     22.425409   21.826852   24.299524 H          1 MOL1         0.3769
      71    C21     20.693974   23.721382   22.611213 C.3        1 MOL1         0.1053
      72    H34     20.217592   22.747055   22.450542 H          1 MOL1         0.0783
      73    O18     19.902424   24.523678   23.492522 O.3        1 MOL1        -0.5519
      74    H35     20.002671   24.099149   24.374070 H          1 MOL1         0.3769
      75    C22     20.916101   24.446669   21.257272 C.3        1 MOL1         0.1018
      76    H36     21.450539   25.374805   21.497452 H          1 MOL1         0.0783
      77    C23     21.862459   23.626523   20.342532 C.3        1 MOL1         0.1043
      78    H37     21.442164   22.625278   20.182286 H          1 MOL1         0.0783
      79    O19     23.132411   23.518889   21.034840 O.3        1 MOL1        -0.3740
      80    C24     22.108547   24.266754   18.954436 C.3        1 MOL1         0.0138
      81    H38     21.219797   24.095237   18.332254 H          1 MOL1         0.0794
      82    H39     22.947469   23.751356   18.468461 H          1 MOL1         0.0794
      83    O20     22.371498   25.672064   19.041358 O.3        1 MOL1        -0.5486
      84    H40     21.555282   26.092832   19.391651 H          1 MOL1         0.3769
      85    C25     24.694829   17.751338   21.662937 C.3        1 MOL1         0.2972
      86    H41     25.536547   17.057279   21.542528 H          1 MOL1         0.0751
      87    O21     23.449105   17.036196   21.728135 O.3        1 MOL1        -0.3740
      88    C26     24.856694   18.533503   22.995027 C.3        1 MOL1         0.1003
      89    H42     25.840312   19.020332   22.973349 H          1 MOL1         0.0783
      90    O22     24.800602   17.632084   24.110449 O.3        1 MOL1        -0.5519
      91    H43     24.146215   16.938203   23.864167 H          1 MOL1         0.3769
      92    C27     23.782744   19.637873   23.145224 C.3        1 MOL1         0.1053
      93    H44     22.798187   19.161368   23.244938 H          1 MOL1         0.0783
      94    O23     24.068223   20.428664   24.304546 O.3        1 MOL1        -0.5519
      95    H45     24.254048   19.777004   25.016645 H          1 MOL1         0.3769
      96    C28     23.764560   20.523615   21.881695 C.3        1 MOL1         0.1018
      97    H46     24.732212   21.036095   21.796350 H          1 MOL1         0.0783
      98    C29     23.561080   19.658758   20.613865 C.3        1 MOL1         0.1043
      99    H47     22.595253   19.144059   20.695824 H          1 MOL1         0.0783
     100    O24     24.633313   18.680321   20.554170 O.3        1 MOL1        -0.3740
     101    C30     23.553160   20.472539   19.294500 C.3        1 MOL1         0.0138
     102    H48     22.551532   20.901103   19.159753 H          1 MOL1         0.0794
     103    H49     23.719941   19.785760   18.454710 H          1 MOL1         0.0794
     104    O25     24.531958   21.519863   19.279148 O.3        1 MOL1        -0.5486
     105    H50     24.205047   22.227592   19.882588 H          1 MOL1         0.3769
     106    C31     21.336208   13.765760   20.400111 C.3        1 MOL1         0.2972
     107    H51     20.919146   12.863275   19.934952 H          1 MOL1         0.0751
     108    O26     20.340241   14.519541   21.113478 O.3        1 MOL1        -0.3740
     109    C32     22.453441   13.417101   21.412011 C.3        1 MOL1         0.1003
     110    H52     23.261234   12.921157   20.858417 H          1 MOL1         0.0783
     111    O27     21.959203   12.534650   22.433236 O.3        1 MOL1        -0.5519
     112    H53     21.127268   12.937747   22.790233 H          1 MOL1         0.3769
     113    C33     23.023418   14.708227   22.051834 C.3        1 MOL1         0.1053
     114    H54     22.245338   15.119522   22.706552 H          1 MOL1         0.0783
     115    O28     24.176313   14.381602   22.833867 O.3        1 MOL1        -0.5519
     116    H55     23.909445   13.608470   23.378205 H          1 MOL1         0.3769
     117    C34     23.387859   15.792139   20.999013 C.3        1 MOL1         0.1018
     118    H56     24.354730   15.523295   20.554591 H          1 MOL1         0.0783
     119    C35     22.319388   15.938455   19.874263 C.3        1 MOL1         0.1043
     120    H57     21.447135   16.441224   20.305790 H          1 MOL1         0.0783
     121    O29     21.925605   14.625863   19.404474 O.3        1 MOL1        -0.3740
     122    C36     22.747853   16.778449   18.643569 C.3        1 MOL1         0.0138
     123    H58     22.458681   17.821189   18.816422 H          1 MOL1         0.0794
     124    H59     22.169043   16.440078   17.773811 H          1 MOL1         0.0794
     125    O30     24.150714   16.705678   18.362594 O.3        1 MOL1        -0.5486
     126    H60     24.592615   17.327247   18.986795 H          1 MOL1         0.3769
     127    C1      19.840364   18.470796   19.786258 C.2        1 MOL1         0.6173
     128    O1      20.447235   19.422170   19.331135 O.co2      1 MOL1        -0.6755
     129    O2      19.386368   17.581424   19.093459 O.co2      1 MOL1        -0.6755
     130    C2      19.600657   18.385656   21.254849 C.2        1 MOL1        -0.1504
     131    H1      19.064698   17.504507   21.590356 H          1 MOL1         0.0814
     132    C3      19.980682   19.343407   22.133246 C.2        1 MOL1        -0.1394
     133    H2      20.495185   20.229198   21.768255 H          1 MOL1         0.0817
     134    C4      19.688324   19.362460   23.624155 C.3        1 MOL1        -0.1849
     135    H3      18.753966   19.914291   23.789839 H          1 MOL1         0.0736
     136    H4      20.470040   19.940814   24.134416 H          1 MOL1         0.0736
     137    C5      19.571310   17.975463   24.299367 C.3        1 MOL1        -0.1866
     138    H5      19.295884   18.114693   25.353373 H          1 MOL1         0.0738
     139    H6      18.753197   17.403367   23.845622 H          1 MOL1         0.0738
     140    C6      20.881810   17.166695   24.229315 C.3        1 MOL1        -0.2879
     141    H7      20.753497   16.178799   24.689633 H          1 MOL1         0.0750
     142    H8      21.187098   17.018999   23.187569 H          1 MOL1         0.0750
     143    H9      21.691990   17.685959   24.756179 H          1 MOL1         0.0750
@<TRIPOS>BOND
    1     1     2    1
    2     1     3    1
    3     1     4    1
    4     4     5    1
    5     4     6    1
    6     6     7    1
    7     4     8    1
    8     8     9    1
    9     8    10    1
   10    10    11    1
   11     8    12    1
   12    12    13    1
   13    12    14    1
   14    14    15    1
   15     1    16    1
   16    14    16    1
   17    14    17    1
   18    17    18    1
   19    17    19    1
   20    17    20    1
   21    20    21    1
   22    22    23    1
   23    22    24    1
   24    22    25    1
   25    25    26    1
   26    25    27    1
   27    27    28    1
   28    25    29    1
   29    29    30    1
   30    29    31    1
   31    31    32    1
   32     3    33    1
   33    29    33    1
   34    33    34    1
   35    33    35    1
   36    35    36    1
   37    22    37    1
   38    35    37    1
   39    35    38    1
   40    38    39    1
   41    38    40    1
   42    38    41    1
   43    41    42    1
   44    43    44    1
   45    43    45    1
   46    43    46    1
   47    46    47    1
   48    46    48    1
   49    48    49    1
   50    46    50    1
   51    50    51    1
   52    50    52    1
   53    52    53    1
   54    24    54    1
   55    50    54    1
   56    54    55    1
   57    54    56    1
   58    56    57    1
   59    43    58    1
   60    56    58    1
   61    56    59    1
   62    59    60    1
   63    59    61    1
   64    59    62    1
   65    62    63    1
   66    64    65    1
   67    64    66    1
   68    64    67    1
   69    67    68    1
   70    67    69    1
   71    69    70    1
   72    67    71    1
   73    71    72    1
   74    71    73    1
   75    73    74    1
   76    45    75    1
   77    71    75    1
   78    75    76    1
   79    75    77    1
   80    77    78    1
   81    64    79    1
   82    77    79    1
   83    77    80    1
   84    80    81    1
   85    80    82    1
   86    80    83    1
   87    83    84    1
   88    85    86    1
   89    85    87    1
   90    85    88    1
   91    88    89    1
   92    88    90    1
   93    90    91    1
   94    88    92    1
   95    92    93    1
   96    92    94    1
   97    94    95    1
   98    66    96    1
   99    92    96    1
  100    96    97    1
  101    96    98    1
  102    98    99    1
  103    85   100    1
  104    98   100    1
  105    98   101    1
  106   101   102    1
  107   101   103    1
  108   101   104    1
  109   104   105    1
  110   106   107    1
  111    12   108    1
  112   106   108    1
  113   106   109    1
  114   109   110    1
  115   109   111    1
  116   111   112    1
  117   109   113    1
  118   113   114    1
  119   113   115    1
  120   115   116    1
  121    87   117    1
  122   113   117    1
  123   117   118    1
  124   117   119    1
  125   119   120    1
  126   106   121    1
  127   119   121    1
  128   119   122    1
  129   122   123    1
  130   122   124    1
  131   122   125    1
  132   125   126    1
  133   127   128    1
  134   127   129    2
  135   127   130    1
  136   130   131    1
  137   130   132    2
  138   132   133    1
  139   132   134    1
  140   134   135    1
  141   134   136    1
  142   134   137    1
  143   137   138    1
  144   137   139    1
  145   137   140    1
  146   140   141    1
  147   140   142    1
  148   140   143    1
@<TRIPOS>SUBSTRUCTURE
       1 MOL1            1 RESIDUE      1      MOL     
       2 MOL1          143 RESIDUE      1      MOL     
@<SCITEGIC>MOL_PROPERTY
feprocess Rank
SciTegic.value.IntegerValue
202

@<SCITEGIC>MOL_PROPERTY
Conf_Id
SciTegic.value.IntegerValue
619

@<SCITEGIC>MOL_PROPERTY
Probability
SciTegic.value.DoubleValue
0.00

@<SCITEGIC>MOL_PROPERTY
G
SciTegic.value.DoubleValue
510.953

@<SCITEGIC>MOL_PROPERTY
E
SciTegic.value.DoubleValue
328.149

@<SCITEGIC>MOL_PROPERTY
-TS
SciTegic.value.DoubleValue
182.804

@<SCITEGIC>MOL_PROPERTY
U+W
SciTegic.value.DoubleValue
202.061

@<SCITEGIC>MOL_PROPERTY
U
SciTegic.value.DoubleValue
268.840

@<SCITEGIC>MOL_PROPERTY
W
SciTegic.value.DoubleValue
-66.779

@<SCITEGIC>MOL_PROPERTY
W(PB)
SciTegic.value.DoubleValue
-72.597

@<SCITEGIC>MOL_PROPERTY
W(SA)
SciTegic.value.DoubleValue
5.818

@<SCITEGIC>MOL_PROPERTY
Valence
SciTegic.value.DoubleValue
155.769

@<SCITEGIC>MOL_PROPERTY
Coulomb
SciTegic.value.DoubleValue
140.605

@<SCITEGIC>MOL_PROPERTY
VdW
SciTegic.value.DoubleValue
-27.534

@<SCITEGIC>MOL_PROPERTY
VdW6
SciTegic.value.DoubleValue
-190.796

@<SCITEGIC>MOL_PROPERTY
VdW12
SciTegic.value.DoubleValue
163.262

@<SCITEGIC>MOL_PROPERTY
Bond
SciTegic.value.DoubleValue
5.105

@<SCITEGIC>MOL_PROPERTY
Angle
SciTegic.value.DoubleValue
19.554

@<SCITEGIC>MOL_PROPERTY
Pdih
SciTegic.value.DoubleValue
131.095

@<SCITEGIC>MOL_PROPERTY
Idih
SciTegic.value.DoubleValue
0.015

@<SCITEGIC>MOL_PROPERTY
Tether
SciTegic.value.DoubleValue
0.000

@<TRIPOS>MOLECULE
CD_guest-s19_fast_vm2_rndm.mol2 : feprocess host+ligand conformer 203
         143         148           2
SMALL
USER_CHARGES
 
@<TRIPOS>ATOM
       1    C1      16.409794   15.444730   20.329679 C.3        1 MOL1         0.2972
       2    H1      16.603574   15.128821   19.298908 H          1 MOL1         0.0751
       3    O1      15.041732   15.926449   20.378860 O.3        1 MOL1        -0.3740
       4    C2      16.569664   14.202340   21.266235 C.3        1 MOL1         0.1003
       5    H2      16.576031   13.318428   20.615480 H          1 MOL1         0.0783
       6    O2      15.503516   14.071691   22.221809 O.3        1 MOL1        -0.5519
       7    H3      15.135259   14.980854   22.363453 H          1 MOL1         0.3769
       8    C3      17.907415   14.217466   22.049885 C.3        1 MOL1         0.1053
       9    H4      17.793145   14.906157   22.898928 H          1 MOL1         0.0783
      10    O3      18.180623   12.895828   22.527562 O.3        1 MOL1        -0.5519
      11    H5      17.366151   12.620636   23.003013 H          1 MOL1         0.3769
      12    C4      19.083714   14.733876   21.188793 C.3        1 MOL1         0.1018
      13    H6      19.312841   13.975174   20.430334 H          1 MOL1         0.0783
      14    C5      18.756117   16.093355   20.503649 C.3        1 MOL1         0.1043
      15    H7      19.352634   16.859317   21.009714 H          1 MOL1         0.0783
      16    O4      17.365286   16.457637   20.690617 O.3        1 MOL1        -0.3740
      17    C6      19.124713   16.163680   18.995484 C.3        1 MOL1         0.0138
      18    H8      20.203968   16.339495   18.906283 H          1 MOL1         0.0794
      19    H9      18.628740   17.041627   18.560613 H          1 MOL1         0.0794
      20    O5      18.759656   14.987170   18.260134 O.3        1 MOL1        -0.5486
      21    H10     19.544815   14.399309   18.226673 H          1 MOL1         0.3769
      22    C7      14.739219   20.086768   21.529726 C.3        1 MOL1         0.2972
      23    H11     14.124994   20.971395   21.740746 H          1 MOL1         0.0751
      24    O6      16.139395   20.409094   21.582485 O.3        1 MOL1        -0.3740
      25    C8      14.427258   19.000167   22.599330 C.3        1 MOL1         0.1003
      26    H12     13.336548   18.876049   22.610251 H          1 MOL1         0.0783
      27    O7      14.851304   19.423018   23.904980 O.3        1 MOL1        -0.5519
      28    H13     15.442717   20.206503   23.778593 H          1 MOL1         0.3769
      29    C9      15.043901   17.623651   22.250843 C.3        1 MOL1         0.1053
      30    H14     16.133050   17.706181   22.343075 H          1 MOL1         0.0783
      31    O8      14.534025   16.650520   23.165968 O.3        1 MOL1        -0.5519
      32    H15     14.629264   17.067733   24.051671 H          1 MOL1         0.3769
      33    C10     14.660591   17.270000   20.792243 C.3        1 MOL1         0.1018
      34    H16     13.563803   17.295619   20.755227 H          1 MOL1         0.0783
      35    C11     15.153192   18.377384   19.821792 C.3        1 MOL1         0.1043
      36    H17     16.236243   18.521653   19.935804 H          1 MOL1         0.0783
      37    O9      14.458983   19.595301   20.196259 O.3        1 MOL1        -0.3740
      38    C12     14.867597   18.084454   18.329240 C.3        1 MOL1         0.0138
      39    H18     15.602584   17.349268   17.974355 H          1 MOL1         0.0794
      40    H19     15.025593   19.004895   17.751606 H          1 MOL1         0.0794
      41    O10     13.542521   17.583808   18.116413 O.3        1 MOL1        -0.5486
      42    H20     13.484384   16.723412   18.587906 H          1 MOL1         0.3769
      43    C13     18.535439   23.851500   21.506105 C.3        1 MOL1         0.2972
      44    H21     18.872511   24.893401   21.432555 H          1 MOL1         0.0751
      45    O11     19.641646   22.944845   21.668680 O.3        1 MOL1        -0.3740
      46    C14     17.612915   23.687113   22.740064 C.3        1 MOL1         0.1003
      47    H22     16.757557   24.361694   22.604487 H          1 MOL1         0.0783
      48    O12     18.308863   24.044346   23.944953 O.3        1 MOL1        -0.5519
      49    H23     19.275356   23.932757   23.763242 H          1 MOL1         0.3769
      50    C15     17.070313   22.241873   22.835317 C.3        1 MOL1         0.1053
      51    H24     17.910086   21.566665   23.048515 H          1 MOL1         0.0783
      52    O13     16.103510   22.166278   23.887758 O.3        1 MOL1        -0.5519
      53    H25     16.520749   22.630091   24.647854 H          1 MOL1         0.3769
      54    C16     16.428061   21.819856   21.493574 C.3        1 MOL1         0.1018
      55    H26     15.519339   22.418497   21.347613 H          1 MOL1         0.0783
      56    C17     17.376350   22.076340   20.291522 C.3        1 MOL1         0.1043
      57    H27     18.252306   21.433151   20.401897 H          1 MOL1         0.0783
      58    O14     17.807526   23.462138   20.318118 O.3        1 MOL1        -0.3740
      59    C18     16.760888   21.757480   18.905820 C.3        1 MOL1         0.0138
      60    H28     16.872034   20.680614   18.720782 H          1 MOL1         0.0794
      61    H29     17.346287   22.275088   18.134616 H          1 MOL1         0.0794
      62    O15     15.377857   22.118330   18.808119 O.3        1 MOL1        -0.5486
      63    H30     14.866731   21.383822   19.221434 H          1 MOL1         0.3769
      64    C19     23.779353   22.780870   21.174462 C.3        1 MOL1         0.2972
      65    H31     24.823339   23.009412   20.925618 H          1 MOL1         0.0751
      66    O16     23.635884   21.453523   21.707743 O.3        1 MOL1        -0.3740
      67    C20     23.271082   23.750454   22.269605 C.3        1 MOL1         0.1003
      68    H32     23.353576   24.772379   21.877325 H          1 MOL1         0.0783
      69    O17     24.074169   23.625421   23.454732 O.3        1 MOL1        -0.5519
      70    H33     24.307276   22.667891   23.539517 H          1 MOL1         0.3769
      71    C21     21.783080   23.475498   22.595447 C.3        1 MOL1         0.1053
      72    H34     21.707894   22.485930   23.068082 H          1 MOL1         0.0783
      73    O18     21.295182   24.479705   23.491469 O.3        1 MOL1        -0.5519
      74    H35     21.988147   24.561766   24.184119 H          1 MOL1         0.3769
      75    C22     20.933352   23.458406   21.303116 C.3        1 MOL1         0.1018
      76    H36     20.876431   24.482038   20.910362 H          1 MOL1         0.0783
      77    C23     21.544434   22.530465   20.216992 C.3        1 MOL1         0.1043
      78    H37     21.499769   21.495751   20.579280 H          1 MOL1         0.0783
      79    O19     22.931079   22.905282   20.011033 O.3        1 MOL1        -0.3740
      80    C24     20.808488   22.564331   18.852184 C.3        1 MOL1         0.0138
      81    H38     19.985010   21.840414   18.881720 H          1 MOL1         0.0794
      82    H39     21.500926   22.222405   18.071824 H          1 MOL1         0.0794
      83    O20     20.289552   23.858398   18.522318 O.3        1 MOL1        -0.5486
      84    H40     19.439677   23.954199   19.010791 H          1 MOL1         0.3769
      85    C25     25.287199   17.659196   21.623936 C.3        1 MOL1         0.2972
      86    H41     25.934617   16.779337   21.519802 H          1 MOL1         0.0751
      87    O21     23.952002   17.298056   22.024358 O.3        1 MOL1        -0.3740
      88    C26     25.846377   18.600087   22.717458 C.3        1 MOL1         0.1003
      89    H42     26.851396   18.914978   22.408006 H          1 MOL1         0.0783
      90    O22     25.925017   17.907409   23.974038 O.3        1 MOL1        -0.5519
      91    H43     25.142202   17.303048   24.015525 H          1 MOL1         0.3769
      92    C27     24.963146   19.863016   22.852449 C.3        1 MOL1         0.1053
      93    H44     23.989539   19.555395   23.259180 H          1 MOL1         0.0783
      94    O23     25.585208   20.793381   23.746250 O.3        1 MOL1        -0.5519
      95    H45     25.854722   20.257966   24.525210 H          1 MOL1         0.3769
      96    C28     24.717590   20.535696   21.479464 C.3        1 MOL1         0.1018
      97    H46     25.639572   21.046162   21.172171 H          1 MOL1         0.0783
      98    C29     24.285952   19.511375   20.390480 C.3        1 MOL1         0.1043
      99    H47     23.289061   19.145085   20.654712 H          1 MOL1         0.0783
     100    O24     25.213649   18.395638   20.384412 O.3        1 MOL1        -0.3740
     101    C30     24.173786   20.072647   18.951336 C.3        1 MOL1         0.0138
     102    H48     23.170485   20.500361   18.825622 H          1 MOL1         0.0794
     103    H49     24.247767   19.235707   18.244652 H          1 MOL1         0.0794
     104    O25     25.165402   21.061234   18.650861 O.3        1 MOL1        -0.5486
     105    H50     24.764825   21.931924   18.867242 H          1 MOL1         0.3769
     106    C31     21.311199   14.037940   21.843539 C.3        1 MOL1         0.2972
     107    H51     20.946582   13.009755   21.720343 H          1 MOL1         0.0751
     108    O26     20.204577   14.931514   22.079977 O.3        1 MOL1        -0.3740
     109    C32     22.273991   14.101395   23.057590 C.3        1 MOL1         0.1003
     110    H52     23.067419   13.361926   22.888122 H          1 MOL1         0.0783
     111    O27     21.573178   13.777432   24.266784 O.3        1 MOL1        -0.5519
     112    H53     20.692390   14.208922   24.187799 H          1 MOL1         0.3769
     113    C33     22.937284   15.491239   23.184110 C.3        1 MOL1         0.1053
     114    H54     22.161431   16.221821   23.447402 H          1 MOL1         0.0783
     115    O28     23.940925   15.452087   24.205920 O.3        1 MOL1        -0.5519
     116    H55     23.510856   15.009218   24.970676 H          1 MOL1         0.3769
     117    C34     23.566492   15.925760   21.842885 C.3        1 MOL1         0.1018
     118    H56     24.428778   15.278710   21.635100 H          1 MOL1         0.0783
     119    C35     22.536467   15.822157   20.684002 C.3        1 MOL1         0.1043
     120    H57     21.720710   16.529283   20.884217 H          1 MOL1         0.0783
     121    O29     22.010353   14.470647   20.653150 O.3        1 MOL1        -0.3740
     122    C36     23.097820   16.153206   19.277515 C.3        1 MOL1         0.0138
     123    H58     23.042182   17.238340   19.127019 H          1 MOL1         0.0794
     124    H59     22.444270   15.696513   18.523213 H          1 MOL1         0.0794
     125    O30     24.447148   15.712049   19.089370 O.3        1 MOL1        -0.5486
     126    H60     25.022129   16.459725   19.369185 H          1 MOL1         0.3769
     127    C1      20.033878   19.214337   19.997502 C.2        1 MOL1         0.6173
     128    O1      19.113036   19.457308   19.241903 O.co2      1 MOL1        -0.6755
     129    O2      21.110771   18.793641   19.619616 O.co2      1 MOL1        -0.6755
     130    C2      19.803119   19.432366   21.451907 C.2        1 MOL1        -0.1504
     131    H1      18.816969   19.792650   21.725920 H          1 MOL1         0.0814
     132    C3      20.721129   19.195427   22.415113 C.2        1 MOL1        -0.1394
     133    H2      21.709267   18.817453   22.165343 H          1 MOL1         0.0817
     134    C4      20.471262   19.444312   23.887430 C.3        1 MOL1        -0.1849
     135    H3      19.828072   20.324577   24.019003 H          1 MOL1         0.0736
     136    H4      21.425116   19.690686   24.372183 H          1 MOL1         0.0736
     137    C5      19.844447   18.229378   24.609251 C.3        1 MOL1        -0.1866
     138    H5      20.477895   17.344887   24.467733 H          1 MOL1         0.0738
     139    H6      19.825418   18.430498   25.688835 H          1 MOL1         0.0738
     140    C6      18.408592   17.917551   24.136558 C.3        1 MOL1        -0.2879
     141    H7      18.399171   17.613399   23.083926 H          1 MOL1         0.0750
     142    H8      17.976032   17.098237   24.724379 H          1 MOL1         0.0750
     143    H9      17.758371   18.795190   24.245833 H          1 MOL1         0.0750
@<TRIPOS>BOND
    1     1     2    1
    2     1     3    1
    3     1     4    1
    4     4     5    1
    5     4     6    1
    6     6     7    1
    7     4     8    1
    8     8     9    1
    9     8    10    1
   10    10    11    1
   11     8    12    1
   12    12    13    1
   13    12    14    1
   14    14    15    1
   15     1    16    1
   16    14    16    1
   17    14    17    1
   18    17    18    1
   19    17    19    1
   20    17    20    1
   21    20    21    1
   22    22    23    1
   23    22    24    1
   24    22    25    1
   25    25    26    1
   26    25    27    1
   27    27    28    1
   28    25    29    1
   29    29    30    1
   30    29    31    1
   31    31    32    1
   32     3    33    1
   33    29    33    1
   34    33    34    1
   35    33    35    1
   36    35    36    1
   37    22    37    1
   38    35    37    1
   39    35    38    1
   40    38    39    1
   41    38    40    1
   42    38    41    1
   43    41    42    1
   44    43    44    1
   45    43    45    1
   46    43    46    1
   47    46    47    1
   48    46    48    1
   49    48    49    1
   50    46    50    1
   51    50    51    1
   52    50    52    1
   53    52    53    1
   54    24    54    1
   55    50    54    1
   56    54    55    1
   57    54    56    1
   58    56    57    1
   59    43    58    1
   60    56    58    1
   61    56    59    1
   62    59    60    1
   63    59    61    1
   64    59    62    1
   65    62    63    1
   66    64    65    1
   67    64    66    1
   68    64    67    1
   69    67    68    1
   70    67    69    1
   71    69    70    1
   72    67    71    1
   73    71    72    1
   74    71    73    1
   75    73    74    1
   76    45    75    1
   77    71    75    1
   78    75    76    1
   79    75    77    1
   80    77    78    1
   81    64    79    1
   82    77    79    1
   83    77    80    1
   84    80    81    1
   85    80    82    1
   86    80    83    1
   87    83    84    1
   88    85    86    1
   89    85    87    1
   90    85    88    1
   91    88    89    1
   92    88    90    1
   93    90    91    1
   94    88    92    1
   95    92    93    1
   96    92    94    1
   97    94    95    1
   98    66    96    1
   99    92    96    1
  100    96    97    1
  101    96    98    1
  102    98    99    1
  103    85   100    1
  104    98   100    1
  105    98   101    1
  106   101   102    1
  107   101   103    1
  108   101   104    1
  109   104   105    1
  110   106   107    1
  111    12   108    1
  112   106   108    1
  113   106   109    1
  114   109   110    1
  115   109   111    1
  116   111   112    1
  117   109   113    1
  118   113   114    1
  119   113   115    1
  120   115   116    1
  121    87   117    1
  122   113   117    1
  123   117   118    1
  124   117   119    1
  125   119   120    1
  126   106   121    1
  127   119   121    1
  128   119   122    1
  129   122   123    1
  130   122   124    1
  131   122   125    1
  132   125   126    1
  133   127   128    1
  134   127   129    2
  135   127   130    1
  136   130   131    1
  137   130   132    2
  138   132   133    1
  139   132   134    1
  140   134   135    1
  141   134   136    1
  142   134   137    1
  143   137   138    1
  144   137   139    1
  145   137   140    1
  146   140   141    1
  147   140   142    1
  148   140   143    1
@<TRIPOS>SUBSTRUCTURE
       1 MOL1            1 RESIDUE      1      MOL     
       2 MOL1          143 RESIDUE      1      MOL     
@<SCITEGIC>MOL_PROPERTY
feprocess Rank
SciTegic.value.IntegerValue
203

@<SCITEGIC>MOL_PROPERTY
Conf_Id
SciTegic.value.IntegerValue
444

@<SCITEGIC>MOL_PROPERTY
Probability
SciTegic.value.DoubleValue
0.00

@<SCITEGIC>MOL_PROPERTY
G
SciTegic.value.DoubleValue
511.921

@<SCITEGIC>MOL_PROPERTY
E
SciTegic.value.DoubleValue
330.901

@<SCITEGIC>MOL_PROPERTY
-TS
SciTegic.value.DoubleValue
181.021

@<SCITEGIC>MOL_PROPERTY
U+W
SciTegic.value.DoubleValue
204.812

@<SCITEGIC>MOL_PROPERTY
U
SciTegic.value.DoubleValue
269.807

@<SCITEGIC>MOL_PROPERTY
W
SciTegic.value.DoubleValue
-64.994

@<SCITEGIC>MOL_PROPERTY
W(PB)
SciTegic.value.DoubleValue
-70.861

@<SCITEGIC>MOL_PROPERTY
W(SA)
SciTegic.value.DoubleValue
5.866

@<SCITEGIC>MOL_PROPERTY
Valence
SciTegic.value.DoubleValue
158.050

@<SCITEGIC>MOL_PROPERTY
Coulomb
SciTegic.value.DoubleValue
138.757

@<SCITEGIC>MOL_PROPERTY
VdW
SciTegic.value.DoubleValue
-27.000

@<SCITEGIC>MOL_PROPERTY
VdW6
SciTegic.value.DoubleValue
-188.169

@<SCITEGIC>MOL_PROPERTY
VdW12
SciTegic.value.DoubleValue
161.169

@<SCITEGIC>MOL_PROPERTY
Bond
SciTegic.value.DoubleValue
5.010

@<SCITEGIC>MOL_PROPERTY
Angle
SciTegic.value.DoubleValue
18.939

@<SCITEGIC>MOL_PROPERTY
Pdih
SciTegic.value.DoubleValue
134.099

@<SCITEGIC>MOL_PROPERTY
Idih
SciTegic.value.DoubleValue
0.001

@<SCITEGIC>MOL_PROPERTY
Tether
SciTegic.value.DoubleValue
0.000

@<TRIPOS>MOLECULE
CD_guest-s19_fast_vm2_rndm.mol2 : feprocess host+ligand conformer 204
         143         148           2
SMALL
USER_CHARGES
 
@<TRIPOS>ATOM
       1    C1      16.043874   15.160773   20.364500 C.3        1 MOL1         0.2972
       2    H1      15.075836   15.063466   19.856653 H          1 MOL1         0.0751
       3    O1      15.952370   16.036876   21.502266 O.3        1 MOL1        -0.3740
       4    C2      16.514408   13.783576   20.890750 C.3        1 MOL1         0.1003
       5    H2      16.582530   13.109003   20.027298 H          1 MOL1         0.0783
       6    O2      15.562211   13.261532   21.829893 O.3        1 MOL1        -0.5519
       7    H3      15.383291   13.995305   22.461848 H          1 MOL1         0.3769
       8    C3      17.916524   13.864013   21.549752 C.3        1 MOL1         0.1053
       9    H4      17.826475   14.428518   22.489148 H          1 MOL1         0.0783
      10    O3      18.342202   12.523791   21.818336 O.3        1 MOL1        -0.5519
      11    H5      17.580809   12.097943   22.270668 H          1 MOL1         0.3769
      12    C4      18.942744   14.607390   20.646597 C.3        1 MOL1         0.1018
      13    H6      19.254509   13.948666   19.826698 H          1 MOL1         0.0783
      14    C5      18.346248   15.922997   20.075650 C.3        1 MOL1         0.1043
      15    H7      18.213538   16.625434   20.909915 H          1 MOL1         0.0783
      16    O4      17.063144   15.651084   19.466517 O.3        1 MOL1        -0.3740
      17    C6      19.249225   16.634051   19.038329 C.3        1 MOL1         0.0138
      18    H8      20.045039   17.160866   19.582145 H          1 MOL1         0.0794
      19    H9      18.654528   17.399163   18.521975 H          1 MOL1         0.0794
      20    O5      19.820284   15.728845   18.084616 O.3        1 MOL1        -0.5486
      21    H10     20.371443   15.088812   18.581604 H          1 MOL1         0.3769
      22    C7      14.919481   20.057807   21.931191 C.3        1 MOL1         0.2972
      23    H11     14.350703   20.989782   22.029190 H          1 MOL1         0.0751
      24    O6      16.338383   20.319908   21.953836 O.3        1 MOL1        -0.3740
      25    C8      14.533217   19.113048   23.091091 C.3        1 MOL1         0.1003
      26    H12     13.443370   18.986115   23.057305 H          1 MOL1         0.0783
      27    O7      14.903986   19.687447   24.352602 O.3        1 MOL1        -0.5519
      28    H13     15.839980   19.979014   24.257485 H          1 MOL1         0.3769
      29    C9      15.176513   17.720181   22.938687 C.3        1 MOL1         0.1053
      30    H14     16.255957   17.831862   23.101280 H          1 MOL1         0.0783
      31    O8      14.621494   16.854381   23.935798 O.3        1 MOL1        -0.5519
      32    H15     14.685900   17.357507   24.776908 H          1 MOL1         0.3769
      33    C10     14.977399   17.106676   21.528807 C.3        1 MOL1         0.1018
      34    H16     13.957680   16.707671   21.458143 H          1 MOL1         0.0783
      35    C11     15.227089   18.146877   20.387936 C.3        1 MOL1         0.1043
      36    H17     16.308854   18.295124   20.312519 H          1 MOL1         0.0783
      37    O9      14.585984   19.413656   20.686984 O.3        1 MOL1        -0.3740
      38    C12     14.685503   17.743184   18.989169 C.3        1 MOL1         0.0138
      39    H18     15.379908   17.051136   18.502228 H          1 MOL1         0.0794
      40    H19     14.657648   18.640754   18.356688 H          1 MOL1         0.0794
      41    O10     13.379832   17.157420   19.059373 O.3        1 MOL1        -0.5486
      42    H20     13.066480   17.016033   18.139333 H          1 MOL1         0.3769
      43    C13     18.698053   23.690507   20.855959 C.3        1 MOL1         0.2972
      44    H21     19.011042   24.571661   20.282088 H          1 MOL1         0.0751
      45    O11     19.667013   23.359181   21.864419 O.3        1 MOL1        -0.3740
      46    C14     17.351343   23.986104   21.564869 C.3        1 MOL1         0.1003
      47    H22     16.647347   24.327971   20.794988 H          1 MOL1         0.0783
      48    O12     17.525928   25.023156   22.542592 O.3        1 MOL1        -0.5519
      49    H23     18.343410   24.789644   23.040872 H          1 MOL1         0.3769
      50    C15     16.747091   22.726981   22.235378 C.3        1 MOL1         0.1053
      51    H24     17.375453   22.462194   23.094932 H          1 MOL1         0.0783
      52    O13     15.425841   23.053937   22.675842 O.3        1 MOL1        -0.5519
      53    H25     15.518071   23.900961   23.164960 H          1 MOL1         0.3769
      54    C16     16.733803   21.523537   21.253641 C.3        1 MOL1         0.1018
      55    H26     16.036982   21.745491   20.434607 H          1 MOL1         0.0783
      56    C17     18.146906   21.311445   20.650409 C.3        1 MOL1         0.1043
      57    H27     18.850931   21.072275   21.458812 H          1 MOL1         0.0783
      58    O14     18.540146   22.541107   19.994736 O.3        1 MOL1        -0.3740
      59    C18     18.231523   20.166013   19.615555 C.3        1 MOL1         0.0138
      60    H28     18.240837   19.214713   20.162471 H          1 MOL1         0.0794
      61    H29     19.191183   20.238466   19.087502 H          1 MOL1         0.0794
      62    O15     17.146078   20.190261   18.679060 O.3        1 MOL1        -0.5486
      63    H30     16.314934   20.125000   19.197142 H          1 MOL1         0.3769
      64    C19     23.778347   22.951746   21.844784 C.3        1 MOL1         0.2972
      65    H31     24.869031   23.072944   21.826131 H          1 MOL1         0.0751
      66    O16     23.401617   21.564504   21.930864 O.3        1 MOL1        -0.3740
      67    C20     23.201028   23.696980   23.066220 C.3        1 MOL1         0.1003
      68    H32     23.468026   24.756972   22.964667 H          1 MOL1         0.0783
      69    O17     23.772254   23.173456   24.276035 O.3        1 MOL1        -0.5519
      70    H33     23.945602   22.215046   24.113385 H          1 MOL1         0.3769
      71    C21     21.660231   23.594006   23.105535 C.3        1 MOL1         0.1053
      72    H34     21.402105   22.555624   23.355859 H          1 MOL1         0.0783
      73    O18     21.166643   24.476286   24.119250 O.3        1 MOL1        -0.5519
      74    H35     21.652348   24.229195   24.935646 H          1 MOL1         0.3769
      75    C22     20.990263   23.934562   21.747222 C.3        1 MOL1         0.1018
      76    H36     20.934957   25.026802   21.654156 H          1 MOL1         0.0783
      77    C23     21.751591   23.333966   20.517410 C.3        1 MOL1         0.1043
      78    H37     21.520693   22.261809   20.474546 H          1 MOL1         0.0783
      79    O19     23.183992   23.512787   20.663269 O.3        1 MOL1        -0.3740
      80    C24     21.393790   23.953248   19.140176 C.3        1 MOL1         0.0138
      81    H38     20.447650   23.532806   18.781102 H          1 MOL1         0.0794
      82    H39     22.161215   23.650506   18.414958 H          1 MOL1         0.0794
      83    O20     21.308795   25.382436   19.191952 O.3        1 MOL1        -0.5486
      84    H40     21.184842   25.707668   18.273575 H          1 MOL1         0.3769
      85    C25     24.829850   17.771920   20.904684 C.3        1 MOL1         0.2972
      86    H41     25.429507   16.930596   20.534298 H          1 MOL1         0.0751
      87    O21     23.494576   17.359852   21.250319 O.3        1 MOL1        -0.3740
      88    C26     25.494601   18.436260   22.140943 C.3        1 MOL1         0.1003
      89    H42     26.476149   18.807293   21.818464 H          1 MOL1         0.0783
      90    O22     25.682711   17.500911   23.213717 O.3        1 MOL1        -0.5519
      91    H43     24.787032   17.154747   23.458432 H          1 MOL1         0.3769
      92    C27     24.661941   19.651020   22.619738 C.3        1 MOL1         0.1053
      93    H44     23.697825   19.282261   22.997826 H          1 MOL1         0.0783
      94    O23     25.366253   20.333706   23.663434 O.3        1 MOL1        -0.5519
      95    H45     25.678129   19.625723   24.269691 H          1 MOL1         0.3769
      96    C28     24.384600   20.626849   21.449423 C.3        1 MOL1         0.1018
      97    H46     25.330465   21.119144   21.187727 H          1 MOL1         0.0783
      98    C29     23.829327   19.891771   20.194877 C.3        1 MOL1         0.1043
      99    H47     22.826203   19.512316   20.431843 H          1 MOL1         0.0783
     100    O24     24.708999   18.782616   19.881364 O.3        1 MOL1        -0.3740
     101    C30     23.694146   20.758906   18.916491 C.3        1 MOL1         0.0138
     102    H48     22.701383   21.223305   18.910322 H          1 MOL1         0.0794
     103    H49     23.733326   20.095593   18.042093 H          1 MOL1         0.0794
     104    O25     24.701860   21.770304   18.806424 O.3        1 MOL1        -0.5486
     105    H50     24.409438   22.523433   19.370662 H          1 MOL1         0.3769
     106    C31     21.070393   14.068668   21.806297 C.3        1 MOL1         0.2972
     107    H51     20.644811   13.076484   21.988696 H          1 MOL1         0.0751
     108    O26     20.066823   15.030634   21.438900 O.3        1 MOL1        -0.3740
     109    C32     21.756660   14.590769   23.092889 C.3        1 MOL1         0.1003
     110    H52     22.560121   13.887436   23.346577 H          1 MOL1         0.0783
     111    O27     20.822763   14.658362   24.181263 O.3        1 MOL1        -0.5519
     112    H53     20.121518   15.314476   23.907178 H          1 MOL1         0.3769
     113    C33     22.385925   15.982217   22.853124 C.3        1 MOL1         0.1053
     114    H54     21.573408   16.702482   22.678038 H          1 MOL1         0.0783
     115    O28     23.132221   16.364735   24.014022 O.3        1 MOL1        -0.5519
     116    H55     22.519292   16.208579   24.766930 H          1 MOL1         0.3769
     117    C34     23.305198   15.979042   21.607605 C.3        1 MOL1         0.1018
     118    H56     24.250608   15.484421   21.867362 H          1 MOL1         0.0783
     119    C35     22.653100   15.282553   20.379479 C.3        1 MOL1         0.1043
     120    H57     21.864661   15.945228   20.005473 H          1 MOL1         0.0783
     121    O29     22.062221   14.013770   20.757763 O.3        1 MOL1        -0.3740
     122    C36     23.635271   15.035947   19.209203 C.3        1 MOL1         0.0138
     123    H58     23.875077   16.002549   18.745741 H          1 MOL1         0.0794
     124    H59     23.128541   14.427450   18.448234 H          1 MOL1         0.0794
     125    O30     24.840172   14.391469   19.641184 O.3        1 MOL1        -0.5486
     126    H60     25.373732   14.190090   18.841486 H          1 MOL1         0.3769
     127    C1      18.965936   17.935521   23.429288 C.2        1 MOL1         0.6173
     128    O1      19.313268   18.500479   22.406752 O.co2      1 MOL1        -0.6755
     129    O2      19.022217   16.730534   23.585808 O.co2      1 MOL1        -0.6755
     130    C2      18.410368   18.725678   24.562016 C.2        1 MOL1        -0.1504
     131    H1      18.084040   18.147514   25.423074 H          1 MOL1         0.0814
     132    C3      18.302128   20.072355   24.568312 C.2        1 MOL1        -0.1394
     133    H2      18.644136   20.659487   23.718660 H          1 MOL1         0.0817
     134    C4      17.735046   20.860272   25.730677 C.3        1 MOL1        -0.1849
     135    H3      16.940820   20.281194   26.220439 H          1 MOL1         0.0736
     136    H4      17.263023   21.782378   25.367148 H          1 MOL1         0.0736
     137    C5      18.812537   21.210569   26.779018 C.3        1 MOL1        -0.1866
     138    H5      18.330909   21.687040   27.643691 H          1 MOL1         0.0738
     139    H6      19.282658   20.288639   27.148061 H          1 MOL1         0.0738
     140    C6      19.894273   22.156849   26.218835 C.3        1 MOL1        -0.2879
     141    H7      19.443420   23.082881   25.839410 H          1 MOL1         0.0750
     142    H8      20.617554   22.424413   26.999533 H          1 MOL1         0.0750
     143    H9      20.445504   21.681229   25.397772 H          1 MOL1         0.0750
@<TRIPOS>BOND
    1     1     2    1
    2     1     3    1
    3     1     4    1
    4     4     5    1
    5     4     6    1
    6     6     7    1
    7     4     8    1
    8     8     9    1
    9     8    10    1
   10    10    11    1
   11     8    12    1
   12    12    13    1
   13    12    14    1
   14    14    15    1
   15     1    16    1
   16    14    16    1
   17    14    17    1
   18    17    18    1
   19    17    19    1
   20    17    20    1
   21    20    21    1
   22    22    23    1
   23    22    24    1
   24    22    25    1
   25    25    26    1
   26    25    27    1
   27    27    28    1
   28    25    29    1
   29    29    30    1
   30    29    31    1
   31    31    32    1
   32     3    33    1
   33    29    33    1
   34    33    34    1
   35    33    35    1
   36    35    36    1
   37    22    37    1
   38    35    37    1
   39    35    38    1
   40    38    39    1
   41    38    40    1
   42    38    41    1
   43    41    42    1
   44    43    44    1
   45    43    45    1
   46    43    46    1
   47    46    47    1
   48    46    48    1
   49    48    49    1
   50    46    50    1
   51    50    51    1
   52    50    52    1
   53    52    53    1
   54    24    54    1
   55    50    54    1
   56    54    55    1
   57    54    56    1
   58    56    57    1
   59    43    58    1
   60    56    58    1
   61    56    59    1
   62    59    60    1
   63    59    61    1
   64    59    62    1
   65    62    63    1
   66    64    65    1
   67    64    66    1
   68    64    67    1
   69    67    68    1
   70    67    69    1
   71    69    70    1
   72    67    71    1
   73    71    72    1
   74    71    73    1
   75    73    74    1
   76    45    75    1
   77    71    75    1
   78    75    76    1
   79    75    77    1
   80    77    78    1
   81    64    79    1
   82    77    79    1
   83    77    80    1
   84    80    81    1
   85    80    82    1
   86    80    83    1
   87    83    84    1
   88    85    86    1
   89    85    87    1
   90    85    88    1
   91    88    89    1
   92    88    90    1
   93    90    91    1
   94    88    92    1
   95    92    93    1
   96    92    94    1
   97    94    95    1
   98    66    96    1
   99    92    96    1
  100    96    97    1
  101    96    98    1
  102    98    99    1
  103    85   100    1
  104    98   100    1
  105    98   101    1
  106   101   102    1
  107   101   103    1
  108   101   104    1
  109   104   105    1
  110   106   107    1
  111    12   108    1
  112   106   108    1
  113   106   109    1
  114   109   110    1
  115   109   111    1
  116   111   112    1
  117   109   113    1
  118   113   114    1
  119   113   115    1
  120   115   116    1
  121    87   117    1
  122   113   117    1
  123   117   118    1
  124   117   119    1
  125   119   120    1
  126   106   121    1
  127   119   121    1
  128   119   122    1
  129   122   123    1
  130   122   124    1
  131   122   125    1
  132   125   126    1
  133   127   128    1
  134   127   129    2
  135   127   130    1
  136   130   131    1
  137   130   132    2
  138   132   133    1
  139   132   134    1
  140   134   135    1
  141   134   136    1
  142   134   137    1
  143   137   138    1
  144   137   139    1
  145   137   140    1
  146   140   141    1
  147   140   142    1
  148   140   143    1
@<TRIPOS>SUBSTRUCTURE
       1 MOL1            1 RESIDUE      1      MOL     
       2 MOL1          143 RESIDUE      1      MOL     
@<SCITEGIC>MOL_PROPERTY
feprocess Rank
SciTegic.value.IntegerValue
204

@<SCITEGIC>MOL_PROPERTY
Conf_Id
SciTegic.value.IntegerValue
291

@<SCITEGIC>MOL_PROPERTY
Probability
SciTegic.value.DoubleValue
0.00

@<SCITEGIC>MOL_PROPERTY
G
SciTegic.value.DoubleValue
512.779

@<SCITEGIC>MOL_PROPERTY
E
SciTegic.value.DoubleValue
332.458

@<SCITEGIC>MOL_PROPERTY
-TS
SciTegic.value.DoubleValue
180.321

@<SCITEGIC>MOL_PROPERTY
U+W
SciTegic.value.DoubleValue
206.369

@<SCITEGIC>MOL_PROPERTY
U
SciTegic.value.DoubleValue
271.571

@<SCITEGIC>MOL_PROPERTY
W
SciTegic.value.DoubleValue
-65.202

@<SCITEGIC>MOL_PROPERTY
W(PB)
SciTegic.value.DoubleValue
-71.347

@<SCITEGIC>MOL_PROPERTY
W(SA)
SciTegic.value.DoubleValue
6.145

@<SCITEGIC>MOL_PROPERTY
Valence
SciTegic.value.DoubleValue
142.850

@<SCITEGIC>MOL_PROPERTY
Coulomb
SciTegic.value.DoubleValue
151.265

@<SCITEGIC>MOL_PROPERTY
VdW
SciTegic.value.DoubleValue
-22.544

@<SCITEGIC>MOL_PROPERTY
VdW6
SciTegic.value.DoubleValue
-173.089

@<SCITEGIC>MOL_PROPERTY
VdW12
SciTegic.value.DoubleValue
150.545

@<SCITEGIC>MOL_PROPERTY
Bond
SciTegic.value.DoubleValue
4.759

@<SCITEGIC>MOL_PROPERTY
Angle
SciTegic.value.DoubleValue
17.426

@<SCITEGIC>MOL_PROPERTY
Pdih
SciTegic.value.DoubleValue
120.663

@<SCITEGIC>MOL_PROPERTY
Idih
SciTegic.value.DoubleValue
0.002

@<SCITEGIC>MOL_PROPERTY
Tether
SciTegic.value.DoubleValue
0.000

@<TRIPOS>MOLECULE
CD_guest-s19_fast_vm2_rndm.mol2 : feprocess host+ligand conformer 205
         143         148           2
SMALL
USER_CHARGES
 
@<TRIPOS>ATOM
       1    C1      16.130671   14.915944   21.415514 C.3        1 MOL1         0.2972
       2    H1      15.049674   14.780572   21.283619 H          1 MOL1         0.0751
       3    O1      16.451291   16.263918   21.812083 O.3        1 MOL1        -0.3740
       4    C2      16.642199   13.964478   22.523586 C.3        1 MOL1         0.1003
       5    H2      16.402076   12.938210   22.216897 H          1 MOL1         0.0783
       6    O2      15.986324   14.257167   23.767939 O.3        1 MOL1        -0.5519
       7    H3      15.816867   15.231533   23.776991 H          1 MOL1         0.3769
       8    C3      18.177226   14.069198   22.684970 C.3        1 MOL1         0.1053
       9    H4      18.408358   15.055706   23.105603 H          1 MOL1         0.0783
      10    O3      18.635516   13.047928   23.578376 O.3        1 MOL1        -0.5519
      11    H5      18.033531   13.098398   24.353470 H          1 MOL1         0.3769
      12    C4      18.913245   13.952520   21.327803 C.3        1 MOL1         0.1018
      13    H6      18.894157   12.902351   21.008663 H          1 MOL1         0.0783
      14    C5      18.267570   14.858126   20.239107 C.3        1 MOL1         0.1043
      15    H7      18.443834   15.898836   20.530580 H          1 MOL1         0.0783
      16    O4      16.838222   14.614406   20.195085 O.3        1 MOL1        -0.3740
      17    C6      18.829578   14.696447   18.804767 C.3        1 MOL1         0.0138
      18    H8      19.692619   15.365076   18.694715 H          1 MOL1         0.0794
      19    H9      18.071717   15.046979   18.091954 H          1 MOL1         0.0794
      20    O5      19.210241   13.351519   18.493980 O.3        1 MOL1        -0.5486
      21    H10     20.169008   13.282031   18.697698 H          1 MOL1         0.3769
      22    C7      14.865656   20.148676   21.478832 C.3        1 MOL1         0.2972
      23    H11     14.156714   20.959081   21.264870 H          1 MOL1         0.0751
      24    O6      16.122803   20.690895   21.931935 O.3        1 MOL1        -0.3740
      25    C8      14.287092   19.243033   22.595697 C.3        1 MOL1         0.1003
      26    H12     13.305352   18.885764   22.258607 H          1 MOL1         0.0783
      27    O7      14.129881   19.990683   23.810394 O.3        1 MOL1        -0.5519
      28    H13     14.904428   20.596543   23.854091 H          1 MOL1         0.3769
      29    C9      15.187032   18.011264   22.837637 C.3        1 MOL1         0.1053
      30    H14     16.143662   18.365347   23.243225 H          1 MOL1         0.0783
      31    O8      14.551269   17.127413   23.768712 O.3        1 MOL1        -0.5519
      32    H15     14.255601   17.703581   24.507515 H          1 MOL1         0.3769
      33    C10     15.466453   17.270327   21.510974 C.3        1 MOL1         0.1018
      34    H16     14.524975   16.829534   21.157959 H          1 MOL1         0.0783
      35    C11     16.019402   18.244516   20.432401 C.3        1 MOL1         0.1043
      36    H17     16.996352   18.616984   20.768493 H          1 MOL1         0.0783
      37    O9      15.095839   19.354457   20.293251 O.3        1 MOL1        -0.3740
      38    C12     16.216278   17.619409   19.027169 C.3        1 MOL1         0.0138
      39    H18     17.208068   17.155566   18.986000 H          1 MOL1         0.0794
      40    H19     16.215568   18.425191   18.281954 H          1 MOL1         0.0794
      41    O10     15.218913   16.646191   18.696368 O.3        1 MOL1        -0.5486
      42    H20     15.534503   15.790899   19.068779 H          1 MOL1         0.3769
      43    C13     18.575802   23.868948   20.657847 C.3        1 MOL1         0.2972
      44    H21     18.247939   23.981306   19.619151 H          1 MOL1         0.0751
      45    O11     19.676011   24.793615   20.859362 O.3        1 MOL1        -0.3740
      46    C14     17.384035   24.252018   21.595476 C.3        1 MOL1         0.1003
      47    H22     16.647686   24.772980   20.969961 H          1 MOL1         0.0783
      48    O12     17.770659   25.112988   22.680135 O.3        1 MOL1        -0.5519
      49    H23     18.737419   24.958981   22.834753 H          1 MOL1         0.3769
      50    C15     16.686700   23.009091   22.205048 C.3        1 MOL1         0.1053
      51    H24     17.301865   22.656226   23.044710 H          1 MOL1         0.0783
      52    O13     15.389202   23.386430   22.678476 O.3        1 MOL1        -0.5519
      53    H25     15.542296   24.168761   23.252753 H          1 MOL1         0.3769
      54    C16     16.575757   21.846865   21.191434 C.3        1 MOL1         0.1018
      55    H26     15.850146   22.132083   20.418677 H          1 MOL1         0.0783
      56    C17     17.949020   21.510678   20.538529 C.3        1 MOL1         0.1043
      57    H27     18.285590   20.560043   20.965343 H          1 MOL1         0.0783
      58    O14     18.956112   22.498461   20.878761 O.3        1 MOL1        -0.3740
      59    C18     17.887342   21.313996   18.999160 C.3        1 MOL1         0.0138
      60    H28     17.449428   20.328471   18.797544 H          1 MOL1         0.0794
      61    H29     18.911949   21.295470   18.606105 H          1 MOL1         0.0794
      62    O15     17.126452   22.327727   18.328286 O.3        1 MOL1        -0.5486
      63    H30     17.135032   22.118461   17.368938 H          1 MOL1         0.3769
      64    C19     23.394949   22.850293   21.920359 C.3        1 MOL1         0.2972
      65    H31     24.459258   22.920589   22.179333 H          1 MOL1         0.0751
      66    O16     22.991132   21.478474   21.788543 O.3        1 MOL1        -0.3740
      67    C20     22.562120   23.520162   23.052825 C.3        1 MOL1         0.1003
      68    H32     22.996936   24.515757   23.210876 H          1 MOL1         0.0783
      69    O17     22.661894   22.777215   24.278792 O.3        1 MOL1        -0.5519
      70    H33     23.192153   21.964575   24.083092 H          1 MOL1         0.3769
      71    C21     21.075346   23.720071   22.669119 C.3        1 MOL1         0.1053
      72    H34     20.598973   22.732428   22.629062 H          1 MOL1         0.0783
      73    O18     20.453794   24.537482   23.664322 O.3        1 MOL1        -0.5519
      74    H35     20.738890   24.147993   24.521514 H          1 MOL1         0.3769
      75    C22     21.013793   24.398566   21.278018 C.3        1 MOL1         0.1018
      76    H36     21.585366   25.330940   21.373103 H          1 MOL1         0.0783
      77    C23     21.762050   23.537840   20.225199 C.3        1 MOL1         0.1043
      78    H37     21.345776   22.521281   20.208502 H          1 MOL1         0.0783
      79    O19     23.150741   23.489488   20.643488 O.3        1 MOL1        -0.3740
      80    C24     21.699145   24.101446   18.785240 C.3        1 MOL1         0.0138
      81    H38     20.708303   23.875454   18.368477 H          1 MOL1         0.0794
      82    H39     22.438239   23.575179   18.166624 H          1 MOL1         0.0794
      83    O20     21.929419   25.514564   18.743275 O.3        1 MOL1        -0.5486
      84    H40     21.197533   25.937007   19.245209 H          1 MOL1         0.3769
      85    C25     24.832420   17.733166   21.415983 C.3        1 MOL1         0.2972
      86    H41     25.573709   16.938519   21.262566 H          1 MOL1         0.0751
      87    O21     23.509209   17.198431   21.604328 O.3        1 MOL1        -0.3740
      88    C26     25.191646   18.545420   22.685576 C.3        1 MOL1         0.1003
      89    H42     26.188348   18.978281   22.529671 H          1 MOL1         0.0783
      90    O22     25.222913   17.694752   23.842649 O.3        1 MOL1        -0.5519
      91    H43     24.632899   16.923472   23.650114 H          1 MOL1         0.3769
      92    C27     24.193500   19.707861   22.894139 C.3        1 MOL1         0.1053
      93    H44     23.205305   19.282959   23.116838 H          1 MOL1         0.0783
      94    O23     24.634340   20.523379   23.984877 O.3        1 MOL1        -0.5519
      95    H45     24.882823   19.885540   24.691301 H          1 MOL1         0.3769
      96    C28     24.083035   20.555326   21.605909 C.3        1 MOL1         0.1018
      97    H46     25.038825   21.073407   21.452075 H          1 MOL1         0.0783
      98    C29     23.799384   19.680201   20.356792 C.3        1 MOL1         0.1043
      99    H47     22.812349   19.224701   20.473992 H          1 MOL1         0.0783
     100    O24     24.797292   18.628458   20.279818 O.3        1 MOL1        -0.3740
     101    C30     23.779387   20.467962   19.021803 C.3        1 MOL1         0.0138
     102    H48     22.783917   20.914971   18.900526 H          1 MOL1         0.0794
     103    H49     23.913939   19.759703   18.193779 H          1 MOL1         0.0794
     104    O25     24.771556   21.500379   18.962888 O.3        1 MOL1        -0.5486
     105    H50     24.419153   22.260727   19.481697 H          1 MOL1         0.3769
     106    C31     21.336597   13.680074   21.012013 C.3        1 MOL1         0.2972
     107    H51     21.031305   12.665918   20.725043 H          1 MOL1         0.0751
     108    O26     20.248723   14.414047   21.600505 O.3        1 MOL1        -0.3740
     109    C32     22.450565   13.613110   22.086093 C.3        1 MOL1         0.1003
     110    H52     23.295350   13.057432   21.658793 H          1 MOL1         0.0783
     111    O27     21.968851   12.930633   23.255090 O.3        1 MOL1        -0.5519
     112    H53     21.029472   13.212862   23.375960 H          1 MOL1         0.3769
     113    C33     22.943163   15.032966   22.458307 C.3        1 MOL1         0.1053
     114    H54     22.125820   15.560843   22.969538 H          1 MOL1         0.0783
     115    O28     24.076215   14.933441   23.327502 O.3        1 MOL1        -0.5519
     116    H55     23.824061   14.262052   24.000037 H          1 MOL1         0.3769
     117    C34     23.315212   15.835681   21.189652 C.3        1 MOL1         0.1018
     118    H56     24.224795   15.400895   20.754954 H          1 MOL1         0.0783
     119    C35     22.178869   15.799453   20.132402 C.3        1 MOL1         0.1043
     120    H57     21.305402   16.317388   20.547315 H          1 MOL1         0.0783
     121    O29     21.835095   14.414002   19.870737 O.3        1 MOL1        -0.3740
     122    C36     22.523095   16.496496   18.790065 C.3        1 MOL1         0.0138
     123    H58     22.278288   17.562620   18.878313 H          1 MOL1         0.0794
     124    H59     21.872030   16.088622   18.006017 H          1 MOL1         0.0794
     125    O30     23.898759   16.353832   18.415596 O.3        1 MOL1        -0.5486
     126    H60     24.400000   17.034909   18.920550 H          1 MOL1         0.3769
     127    C1      20.128258   18.840630   20.070512 C.2        1 MOL1         0.6173
     128    O1      19.470797   17.900201   19.670139 O.co2      1 MOL1        -0.6755
     129    O2      20.616060   19.671884   19.330363 O.co2      1 MOL1        -0.6755
     130    C2      20.379652   18.997461   21.528838 C.2        1 MOL1        -0.1504
     131    H1      20.934365   19.886994   21.812287 H          1 MOL1         0.0814
     132    C3      19.978991   18.120873   22.476685 C.2        1 MOL1        -0.1394
     133    H2      19.426947   17.221126   22.210803 H          1 MOL1         0.0817
     134    C4      20.285641   18.302284   23.949328 C.3        1 MOL1        -0.1849
     135    H3      20.996517   19.129157   24.078738 H          1 MOL1         0.0736
     136    H4      20.786809   17.407351   24.341068 H          1 MOL1         0.0736
     137    C5      19.023910   18.606335   24.785341 C.3        1 MOL1        -0.1866
     138    H5      19.330285   18.981524   25.771188 H          1 MOL1         0.0738
     139    H6      18.447668   19.410976   24.307526 H          1 MOL1         0.0738
     140    C6      18.132635   17.363371   24.983359 C.3        1 MOL1        -0.2879
     141    H7      18.683568   16.559550   25.488284 H          1 MOL1         0.0750
     142    H8      17.253700   17.608952   25.592889 H          1 MOL1         0.0750
     143    H9      17.778202   16.981035   24.021282 H          1 MOL1         0.0750
@<TRIPOS>BOND
    1     1     2    1
    2     1     3    1
    3     1     4    1
    4     4     5    1
    5     4     6    1
    6     6     7    1
    7     4     8    1
    8     8     9    1
    9     8    10    1
   10    10    11    1
   11     8    12    1
   12    12    13    1
   13    12    14    1
   14    14    15    1
   15     1    16    1
   16    14    16    1
   17    14    17    1
   18    17    18    1
   19    17    19    1
   20    17    20    1
   21    20    21    1
   22    22    23    1
   23    22    24    1
   24    22    25    1
   25    25    26    1
   26    25    27    1
   27    27    28    1
   28    25    29    1
   29    29    30    1
   30    29    31    1
   31    31    32    1
   32     3    33    1
   33    29    33    1
   34    33    34    1
   35    33    35    1
   36    35    36    1
   37    22    37    1
   38    35    37    1
   39    35    38    1
   40    38    39    1
   41    38    40    1
   42    38    41    1
   43    41    42    1
   44    43    44    1
   45    43    45    1
   46    43    46    1
   47    46    47    1
   48    46    48    1
   49    48    49    1
   50    46    50    1
   51    50    51    1
   52    50    52    1
   53    52    53    1
   54    24    54    1
   55    50    54    1
   56    54    55    1
   57    54    56    1
   58    56    57    1
   59    43    58    1
   60    56    58    1
   61    56    59    1
   62    59    60    1
   63    59    61    1
   64    59    62    1
   65    62    63    1
   66    64    65    1
   67    64    66    1
   68    64    67    1
   69    67    68    1
   70    67    69    1
   71    69    70    1
   72    67    71    1
   73    71    72    1
   74    71    73    1
   75    73    74    1
   76    45    75    1
   77    71    75    1
   78    75    76    1
   79    75    77    1
   80    77    78    1
   81    64    79    1
   82    77    79    1
   83    77    80    1
   84    80    81    1
   85    80    82    1
   86    80    83    1
   87    83    84    1
   88    85    86    1
   89    85    87    1
   90    85    88    1
   91    88    89    1
   92    88    90    1
   93    90    91    1
   94    88    92    1
   95    92    93    1
   96    92    94    1
   97    94    95    1
   98    66    96    1
   99    92    96    1
  100    96    97    1
  101    96    98    1
  102    98    99    1
  103    85   100    1
  104    98   100    1
  105    98   101    1
  106   101   102    1
  107   101   103    1
  108   101   104    1
  109   104   105    1
  110   106   107    1
  111    12   108    1
  112   106   108    1
  113   106   109    1
  114   109   110    1
  115   109   111    1
  116   111   112    1
  117   109   113    1
  118   113   114    1
  119   113   115    1
  120   115   116    1
  121    87   117    1
  122   113   117    1
  123   117   118    1
  124   117   119    1
  125   119   120    1
  126   106   121    1
  127   119   121    1
  128   119   122    1
  129   122   123    1
  130   122   124    1
  131   122   125    1
  132   125   126    1
  133   127   128    1
  134   127   129    2
  135   127   130    1
  136   130   131    1
  137   130   132    2
  138   132   133    1
  139   132   134    1
  140   134   135    1
  141   134   136    1
  142   134   137    1
  143   137   138    1
  144   137   139    1
  145   137   140    1
  146   140   141    1
  147   140   142    1
  148   140   143    1
@<TRIPOS>SUBSTRUCTURE
       1 MOL1            1 RESIDUE      1      MOL     
       2 MOL1          143 RESIDUE      1      MOL     
@<SCITEGIC>MOL_PROPERTY
feprocess Rank
SciTegic.value.IntegerValue
205

@<SCITEGIC>MOL_PROPERTY
Conf_Id
SciTegic.value.IntegerValue
855

@<SCITEGIC>MOL_PROPERTY
Probability
SciTegic.value.DoubleValue
0.00

@<SCITEGIC>MOL_PROPERTY
G
SciTegic.value.DoubleValue
512.975

@<SCITEGIC>MOL_PROPERTY
E
SciTegic.value.DoubleValue
331.453

@<SCITEGIC>MOL_PROPERTY
-TS
SciTegic.value.DoubleValue
181.522

@<SCITEGIC>MOL_PROPERTY
U+W
SciTegic.value.DoubleValue
205.364

@<SCITEGIC>MOL_PROPERTY
U
SciTegic.value.DoubleValue
269.267

@<SCITEGIC>MOL_PROPERTY
W
SciTegic.value.DoubleValue
-63.903

@<SCITEGIC>MOL_PROPERTY
W(PB)
SciTegic.value.DoubleValue
-69.830

@<SCITEGIC>MOL_PROPERTY
W(SA)
SciTegic.value.DoubleValue
5.927

@<SCITEGIC>MOL_PROPERTY
Valence
SciTegic.value.DoubleValue
157.546

@<SCITEGIC>MOL_PROPERTY
Coulomb
SciTegic.value.DoubleValue
137.178

@<SCITEGIC>MOL_PROPERTY
VdW
SciTegic.value.DoubleValue
-25.458

@<SCITEGIC>MOL_PROPERTY
VdW6
SciTegic.value.DoubleValue
-185.714

@<SCITEGIC>MOL_PROPERTY
VdW12
SciTegic.value.DoubleValue
160.257

@<SCITEGIC>MOL_PROPERTY
Bond
SciTegic.value.DoubleValue
5.028

@<SCITEGIC>MOL_PROPERTY
Angle
SciTegic.value.DoubleValue
18.958

@<SCITEGIC>MOL_PROPERTY
Pdih
SciTegic.value.DoubleValue
133.559

@<SCITEGIC>MOL_PROPERTY
Idih
SciTegic.value.DoubleValue
0.002

@<SCITEGIC>MOL_PROPERTY
Tether
SciTegic.value.DoubleValue
0.000

@<TRIPOS>MOLECULE
CD_guest-s19_fast_vm2_rndm.mol2 : feprocess host+ligand conformer 206
         143         148           2
SMALL
USER_CHARGES
 
@<TRIPOS>ATOM
       1    C1      16.160388   15.353611   20.058257 C.3        1 MOL1         0.2972
       2    H1      15.218971   15.414980   19.497325 H          1 MOL1         0.0751
       3    O1      16.464344   16.598046   20.721856 O.3        1 MOL1        -0.3740
       4    C2      16.120294   14.202875   21.090151 C.3        1 MOL1         0.1003
       5    H2      16.027224   13.264941   20.527192 H          1 MOL1         0.0783
       6    O2      15.001103   14.323813   21.981365 O.3        1 MOL1        -0.5519
       7    H3      15.105766   15.183409   22.462866 H          1 MOL1         0.3769
       8    C3      17.446064   14.153728   21.882669 C.3        1 MOL1         0.1053
       9    H4      17.494331   15.058534   22.503808 H          1 MOL1         0.0783
      10    O3      17.438951   12.994896   22.723163 O.3        1 MOL1        -0.5519
      11    H5      16.560057   12.999759   23.162507 H          1 MOL1         0.3769
      12    C4      18.704014   14.134074   20.967268 C.3        1 MOL1         0.1018
      13    H6      18.871331   13.097554   20.650920 H          1 MOL1         0.0783
      14    C5      18.583420   15.061641   19.708011 C.3        1 MOL1         0.1043
      15    H7      18.823488   16.088271   20.009832 H          1 MOL1         0.0783
      16    O4      17.240242   15.042321   19.161921 O.3        1 MOL1        -0.3740
      17    C6      19.516605   14.681594   18.527041 C.3        1 MOL1         0.0138
      18    H8      20.555677   14.915729   18.776973 H          1 MOL1         0.0794
      19    H9      19.254986   15.318027   17.671202 H          1 MOL1         0.0794
      20    O5      19.403049   13.302533   18.149953 O.3        1 MOL1        -0.5486
      21    H10     19.790578   12.752293   18.860993 H          1 MOL1         0.3769
      22    C7      14.812407   20.235283   21.815800 C.3        1 MOL1         0.2972
      23    H11     14.152338   21.076889   22.062556 H          1 MOL1         0.0751
      24    O6      16.197548   20.631062   21.811658 O.3        1 MOL1        -0.3740
      25    C8      14.631710   19.110075   22.861263 C.3        1 MOL1         0.1003
      26    H12     13.584227   18.784245   22.819601 H          1 MOL1         0.0783
      27    O7      14.924215   19.600699   24.179446 O.3        1 MOL1        -0.5519
      28    H13     15.540328   20.365972   24.069127 H          1 MOL1         0.3769
      29    C9      15.524099   17.893887   22.524019 C.3        1 MOL1         0.1053
      30    H14     16.567401   18.197973   22.659987 H          1 MOL1         0.0783
      31    O8      15.211151   16.824175   23.421615 O.3        1 MOL1        -0.5519
      32    H15     15.218000   17.237271   24.313947 H          1 MOL1         0.3769
      33    C10     15.337116   17.436438   21.054334 C.3        1 MOL1         0.1018
      34    H16     14.384248   16.896073   20.976058 H          1 MOL1         0.0783
      35    C11     15.353705   18.625228   20.052363 C.3        1 MOL1         0.1043
      36    H17     16.387272   18.988441   19.991645 H          1 MOL1         0.0783
      37    O9      14.496302   19.701684   20.513644 O.3        1 MOL1        -0.3740
      38    C12     14.918602   18.235664   18.619339 C.3        1 MOL1         0.0138
      39    H18     15.704271   17.610179   18.174198 H          1 MOL1         0.0794
      40    H19     14.846869   19.149162   18.013728 H          1 MOL1         0.0794
      41    O10     13.671177   17.530510   18.607490 O.3        1 MOL1        -0.5486
      42    H20     13.416868   17.390286   17.669339 H          1 MOL1         0.3769
      43    C13     18.554910   24.089909   21.604460 C.3        1 MOL1         0.2972
      44    H21     18.875939   25.133298   21.490671 H          1 MOL1         0.0751
      45    O11     19.688677   23.218302   21.765836 O.3        1 MOL1        -0.3740
      46    C14     17.617854   23.967371   22.838573 C.3        1 MOL1         0.1003
      47    H22     16.764821   24.632542   22.652693 H          1 MOL1         0.0783
      48    O12     18.271627   24.390562   24.043943 O.3        1 MOL1        -0.5519
      49    H23     19.027313   23.760412   24.211933 H          1 MOL1         0.3769
      50    C15     17.063565   22.532090   22.996693 C.3        1 MOL1         0.1053
      51    H24     17.896114   21.867317   23.258684 H          1 MOL1         0.0783
      52    O13     16.079538   22.505678   24.036246 O.3        1 MOL1        -0.5519
      53    H25     16.494793   22.982964   24.789048 H          1 MOL1         0.3769
      54    C16     16.438406   22.043234   21.669463 C.3        1 MOL1         0.1018
      55    H26     15.512947   22.605682   21.488032 H          1 MOL1         0.0783
      56    C17     17.400700   22.252806   20.471556 C.3        1 MOL1         0.1043
      57    H27     18.269992   21.603808   20.634455 H          1 MOL1         0.0783
      58    O14     17.828561   23.640818   20.436328 O.3        1 MOL1        -0.3740
      59    C18     16.804027   21.883813   19.087550 C.3        1 MOL1         0.0138
      60    H28     16.990213   20.819305   18.900329 H          1 MOL1         0.0794
      61    H29     17.346304   22.439418   18.311050 H          1 MOL1         0.0794
      62    O15     15.400120   22.149258   18.987073 O.3        1 MOL1        -0.5486
      63    H30     14.934587   21.431578   19.477000 H          1 MOL1         0.3769
      64    C19     23.724270   22.785037   20.869928 C.3        1 MOL1         0.2972
      65    H31     24.743589   22.894885   20.478830 H          1 MOL1         0.0751
      66    O16     23.585864   21.586342   21.656708 O.3        1 MOL1        -0.3740
      67    C20     23.385439   23.990255   21.776749 C.3        1 MOL1         0.1003
      68    H32     23.506055   24.899157   21.173156 H          1 MOL1         0.0783
      69    O17     24.292808   24.033960   22.890216 O.3        1 MOL1        -0.5519
      70    H33     24.432236   23.098224   23.177455 H          1 MOL1         0.3769
      71    C21     21.919637   23.940318   22.273027 C.3        1 MOL1         0.1053
      72    H34     21.840147   23.132494   23.011566 H          1 MOL1         0.0783
      73    O18     21.600245   25.196847   22.880018 O.3        1 MOL1        -0.5519
      74    H35     22.250968   25.308249   23.605908 H          1 MOL1         0.3769
      75    C22     20.914112   23.641209   21.129853 C.3        1 MOL1         0.1018
      76    H36     20.777752   24.557504   20.541054 H          1 MOL1         0.0783
      77    C23     21.398294   22.495351   20.193559 C.3        1 MOL1         0.1043
      78    H37     21.350030   21.554249   20.755838 H          1 MOL1         0.0783
      79    O19     22.767831   22.746054   19.793233 O.3        1 MOL1        -0.3740
      80    C24     20.563727   22.295487   18.901468 C.3        1 MOL1         0.0138
      81    H38     19.772441   21.565070   19.103307 H          1 MOL1         0.0794
      82    H39     21.209700   21.847470   18.134818 H          1 MOL1         0.0794
      83    O20     19.991028   23.508844   18.400906 O.3        1 MOL1        -0.5486
      84    H40     19.255765   23.754332   19.010141 H          1 MOL1         0.3769
      85    C25     25.296552   17.751247   21.926292 C.3        1 MOL1         0.2972
      86    H41     26.023471   16.934208   21.833015 H          1 MOL1         0.0751
      87    O21     24.062892   17.265304   22.504516 O.3        1 MOL1        -0.3740
      88    C26     25.872310   18.846608   22.862486 C.3        1 MOL1         0.1003
      89    H42     26.843580   19.152552   22.452371 H          1 MOL1         0.0783
      90    O22     26.059480   18.319301   24.184036 O.3        1 MOL1        -0.5519
      91    H43     25.255136   17.784463   24.375989 H          1 MOL1         0.3769
      92    C27     24.961322   20.096964   22.912095 C.3        1 MOL1         0.1053
      93    H44     24.025840   19.822907   23.418823 H          1 MOL1         0.0783
      94    O23     25.623147   21.140809   23.636249 O.3        1 MOL1        -0.5519
      95    H45     25.942185   20.719032   24.464277 H          1 MOL1         0.3769
      96    C28     24.611620   20.588336   21.488970 C.3        1 MOL1         0.1018
      97    H46     25.519238   21.003555   21.031389 H          1 MOL1         0.0783
      98    C29     24.070620   19.420130   20.620663 C.3        1 MOL1         0.1043
      99    H47     23.137597   19.073311   21.075625 H          1 MOL1         0.0783
     100    O24     25.033396   18.337579   20.631590 O.3        1 MOL1        -0.3740
     101    C30     23.756486   19.765432   19.144083 C.3        1 MOL1         0.0138
     102    H48     22.749233   20.196350   19.093176 H          1 MOL1         0.0794
     103    H49     23.730043   18.832623   18.565586 H          1 MOL1         0.0794
     104    O25     24.700889   20.671919   18.566180 O.3        1 MOL1        -0.5486
     105    H50     24.330652   21.574766   18.686672 H          1 MOL1         0.3769
     106    C31     21.143626   14.414724   21.438623 C.3        1 MOL1         0.2972
     107    H51     21.241662   13.591201   20.720595 H          1 MOL1         0.0751
     108    O26     19.770479   14.580424   21.841791 O.3        1 MOL1        -0.3740
     109    C32     21.995164   14.113973   22.713529 C.3        1 MOL1         0.1003
     110    H52     22.751243   13.370415   22.430043 H          1 MOL1         0.0783
     111    O27     21.192774   13.571886   23.776776 O.3        1 MOL1        -0.5519
     112    H53     20.271155   13.867055   23.582813 H          1 MOL1         0.3769
     113    C33     22.749083   15.366851   23.215024 C.3        1 MOL1         0.1053
     114    H54     22.008098   16.128284   23.492483 H          1 MOL1         0.0783
     115    O28     23.543733   15.008427   24.349981 O.3        1 MOL1        -0.5519
     116    H55     22.945064   14.466985   24.912028 H          1 MOL1         0.3769
     117    C34     23.653460   15.937523   22.095865 C.3        1 MOL1         0.1018
     118    H56     24.534044   15.285260   22.021259 H          1 MOL1         0.0783
     119    C35     22.930658   15.985100   20.713658 C.3        1 MOL1         0.1043
     120    H57     22.985712   17.002332   20.319485 H          1 MOL1         0.0783
     121    O29     21.524407   15.679420   20.851442 O.3        1 MOL1        -0.3740
     122    C36     23.572388   15.058284   19.655476 C.3        1 MOL1         0.0138
     123    H58     22.993495   15.129066   18.724927 H          1 MOL1         0.0794
     124    H59     23.530238   14.015953   19.996870 H          1 MOL1         0.0794
     125    O30     24.931768   15.436379   19.415666 O.3        1 MOL1        -0.5486
     126    H60     24.958958   16.409168   19.267559 H          1 MOL1         0.3769
     127    C1      21.000082   21.681919   25.207930 C.2        1 MOL1         0.6173
     128    O1      21.685591   21.803779   26.204825 O.co2      1 MOL1        -0.6755
     129    O2      20.151459   22.490947   24.879040 O.co2      1 MOL1        -0.6755
     130    C2      21.219959   20.470523   24.371496 C.2        1 MOL1        -0.1504
     131    H1      21.959609   19.764942   24.740975 H          1 MOL1         0.0814
     132    C3      20.544215   20.218932   23.228371 C.2        1 MOL1        -0.1394
     133    H2      19.800313   20.917972   22.860029 H          1 MOL1         0.0817
     134    C4      20.714606   18.969815   22.395955 C.3        1 MOL1        -0.1849
     135    H3      21.564901   18.377328   22.755543 H          1 MOL1         0.0736
     136    H4      20.936810   19.250872   21.359980 H          1 MOL1         0.0736
     137    C5      19.439181   18.106629   22.406216 C.3        1 MOL1        -0.1866
     138    H5      18.600794   18.695623   22.013518 H          1 MOL1         0.0738
     139    H6      19.576169   17.262986   21.722969 H          1 MOL1         0.0738
     140    C6      19.097810   17.564235   23.810679 C.3        1 MOL1        -0.2879
     141    H7      19.935719   16.989707   24.223730 H          1 MOL1         0.0750
     142    H8      18.867454   18.382547   24.504865 H          1 MOL1         0.0750
     143    H9      18.225343   16.901457   23.769369 H          1 MOL1         0.0750
@<TRIPOS>BOND
    1     1     2    1
    2     1     3    1
    3     1     4    1
    4     4     5    1
    5     4     6    1
    6     6     7    1
    7     4     8    1
    8     8     9    1
    9     8    10    1
   10    10    11    1
   11     8    12    1
   12    12    13    1
   13    12    14    1
   14    14    15    1
   15     1    16    1
   16    14    16    1
   17    14    17    1
   18    17    18    1
   19    17    19    1
   20    17    20    1
   21    20    21    1
   22    22    23    1
   23    22    24    1
   24    22    25    1
   25    25    26    1
   26    25    27    1
   27    27    28    1
   28    25    29    1
   29    29    30    1
   30    29    31    1
   31    31    32    1
   32     3    33    1
   33    29    33    1
   34    33    34    1
   35    33    35    1
   36    35    36    1
   37    22    37    1
   38    35    37    1
   39    35    38    1
   40    38    39    1
   41    38    40    1
   42    38    41    1
   43    41    42    1
   44    43    44    1
   45    43    45    1
   46    43    46    1
   47    46    47    1
   48    46    48    1
   49    48    49    1
   50    46    50    1
   51    50    51    1
   52    50    52    1
   53    52    53    1
   54    24    54    1
   55    50    54    1
   56    54    55    1
   57    54    56    1
   58    56    57    1
   59    43    58    1
   60    56    58    1
   61    56    59    1
   62    59    60    1
   63    59    61    1
   64    59    62    1
   65    62    63    1
   66    64    65    1
   67    64    66    1
   68    64    67    1
   69    67    68    1
   70    67    69    1
   71    69    70    1
   72    67    71    1
   73    71    72    1
   74    71    73    1
   75    73    74    1
   76    45    75    1
   77    71    75    1
   78    75    76    1
   79    75    77    1
   80    77    78    1
   81    64    79    1
   82    77    79    1
   83    77    80    1
   84    80    81    1
   85    80    82    1
   86    80    83    1
   87    83    84    1
   88    85    86    1
   89    85    87    1
   90    85    88    1
   91    88    89    1
   92    88    90    1
   93    90    91    1
   94    88    92    1
   95    92    93    1
   96    92    94    1
   97    94    95    1
   98    66    96    1
   99    92    96    1
  100    96    97    1
  101    96    98    1
  102    98    99    1
  103    85   100    1
  104    98   100    1
  105    98   101    1
  106   101   102    1
  107   101   103    1
  108   101   104    1
  109   104   105    1
  110   106   107    1
  111    12   108    1
  112   106   108    1
  113   106   109    1
  114   109   110    1
  115   109   111    1
  116   111   112    1
  117   109   113    1
  118   113   114    1
  119   113   115    1
  120   115   116    1
  121    87   117    1
  122   113   117    1
  123   117   118    1
  124   117   119    1
  125   119   120    1
  126   106   121    1
  127   119   121    1
  128   119   122    1
  129   122   123    1
  130   122   124    1
  131   122   125    1
  132   125   126    1
  133   127   128    1
  134   127   129    2
  135   127   130    1
  136   130   131    1
  137   130   132    2
  138   132   133    1
  139   132   134    1
  140   134   135    1
  141   134   136    1
  142   134   137    1
  143   137   138    1
  144   137   139    1
  145   137   140    1
  146   140   141    1
  147   140   142    1
  148   140   143    1
@<TRIPOS>SUBSTRUCTURE
       1 MOL1            1 RESIDUE      1      MOL     
       2 MOL1          143 RESIDUE      1      MOL     
@<SCITEGIC>MOL_PROPERTY
feprocess Rank
SciTegic.value.IntegerValue
206

@<SCITEGIC>MOL_PROPERTY
Conf_Id
SciTegic.value.IntegerValue
881

@<SCITEGIC>MOL_PROPERTY
Probability
SciTegic.value.DoubleValue
0.00

@<SCITEGIC>MOL_PROPERTY
G
SciTegic.value.DoubleValue
513.084

@<SCITEGIC>MOL_PROPERTY
E
SciTegic.value.DoubleValue
332.481

@<SCITEGIC>MOL_PROPERTY
-TS
SciTegic.value.DoubleValue
180.603

@<SCITEGIC>MOL_PROPERTY
U+W
SciTegic.value.DoubleValue
206.393

@<SCITEGIC>MOL_PROPERTY
U
SciTegic.value.DoubleValue
290.422

@<SCITEGIC>MOL_PROPERTY
W
SciTegic.value.DoubleValue
-84.029

@<SCITEGIC>MOL_PROPERTY
W(PB)
SciTegic.value.DoubleValue
-90.157

@<SCITEGIC>MOL_PROPERTY
W(SA)
SciTegic.value.DoubleValue
6.127

@<SCITEGIC>MOL_PROPERTY
Valence
SciTegic.value.DoubleValue
155.495

@<SCITEGIC>MOL_PROPERTY
Coulomb
SciTegic.value.DoubleValue
158.741

@<SCITEGIC>MOL_PROPERTY
VdW
SciTegic.value.DoubleValue
-23.815

@<SCITEGIC>MOL_PROPERTY
VdW6
SciTegic.value.DoubleValue
-175.799

@<SCITEGIC>MOL_PROPERTY
VdW12
SciTegic.value.DoubleValue
151.985

@<SCITEGIC>MOL_PROPERTY
Bond
SciTegic.value.DoubleValue
5.106

@<SCITEGIC>MOL_PROPERTY
Angle
SciTegic.value.DoubleValue
16.208

@<SCITEGIC>MOL_PROPERTY
Pdih
SciTegic.value.DoubleValue
134.178

@<SCITEGIC>MOL_PROPERTY
Idih
SciTegic.value.DoubleValue
0.003

@<SCITEGIC>MOL_PROPERTY
Tether
SciTegic.value.DoubleValue
0.000

@<TRIPOS>MOLECULE
CD_guest-s19_fast_vm2_rndm.mol2 : feprocess host+ligand conformer 207
         143         148           2
SMALL
USER_CHARGES
 
@<TRIPOS>ATOM
       1    C1      16.244597   15.571552   21.951355 C.3        1 MOL1         0.2972
       2    H1      15.181264   15.452308   22.182780 H          1 MOL1         0.0751
       3    O1      16.562914   16.910117   21.535032 O.3        1 MOL1        -0.3740
       4    C2      17.091661   15.275906   23.213886 C.3        1 MOL1         0.1003
       5    H2      16.885404   14.240707   23.514510 H          1 MOL1         0.0783
       6    O2      16.737947   16.163241   24.286145 O.3        1 MOL1        -0.5519
       7    H3      16.954559   17.085097   23.968769 H          1 MOL1         0.3769
       8    C3      18.601543   15.402208   22.907082 C.3        1 MOL1         0.1053
       9    H4      18.822139   16.457403   22.691318 H          1 MOL1         0.0783
      10    O3      19.347841   14.973997   24.051943 O.3        1 MOL1        -0.5519
      11    H5      18.945088   15.457659   24.807357 H          1 MOL1         0.3769
      12    C4      19.000499   14.565952   21.667255 C.3        1 MOL1         0.1018
      13    H6      19.043309   13.506560   21.953129 H          1 MOL1         0.0783
      14    C5      18.024770   14.761893   20.472465 C.3        1 MOL1         0.1043
      15    H7      18.193473   15.766910   20.068732 H          1 MOL1         0.0783
      16    O4      16.647110   14.654585   20.910552 O.3        1 MOL1        -0.3740
      17    C6      18.249979   13.760084   19.314566 C.3        1 MOL1         0.0138
      18    H8      19.189348   14.019067   18.807471 H          1 MOL1         0.0794
      19    H9      17.440661   13.882600   18.582389 H          1 MOL1         0.0794
      20    O5      18.303973   12.404060   19.775181 O.3        1 MOL1        -0.5486
      21    H10     18.361329   11.823020   18.985347 H          1 MOL1         0.3769
      22    C7      14.643077   20.444151   20.509496 C.3        1 MOL1         0.2972
      23    H11     14.073832   21.250718   20.030187 H          1 MOL1         0.0751
      24    O6      15.374577   20.923596   21.652138 O.3        1 MOL1        -0.3740
      25    C8      13.686399   19.341211   21.020362 C.3        1 MOL1         0.1003
      26    H12     13.134198   18.957480   20.152554 H          1 MOL1         0.0783
      27    O7      12.760999   19.889823   21.971023 O.3        1 MOL1        -0.5519
      28    H13     13.309617   20.394540   22.614269 H          1 MOL1         0.3769
      29    C9      14.461689   18.159710   21.659796 C.3        1 MOL1         0.1053
      30    H14     14.909274   18.508749   22.601677 H          1 MOL1         0.0783
      31    O8      13.515887   17.116971   21.920189 O.3        1 MOL1        -0.5519
      32    H15     12.764781   17.558770   22.374603 H          1 MOL1         0.3769
      33    C10     15.615979   17.653264   20.746593 C.3        1 MOL1         0.1018
      34    H16     15.200369   17.042039   19.936192 H          1 MOL1         0.0783
      35    C11     16.443490   18.830551   20.159315 C.3        1 MOL1         0.1043
      36    H17     17.011031   19.287655   20.981411 H          1 MOL1         0.0783
      37    O9      15.558118   19.819060   19.583099 O.3        1 MOL1        -0.3740
      38    C12     17.481668   18.406077   19.092003 C.3        1 MOL1         0.0138
      39    H18     18.343731   17.964140   19.610217 H          1 MOL1         0.0794
      40    H19     17.843806   19.306488   18.578719 H          1 MOL1         0.0794
      41    O10     16.951477   17.477625   18.137099 O.3        1 MOL1        -0.5486
      42    H20     16.689486   16.670292   18.626574 H          1 MOL1         0.3769
      43    C13     18.408949   23.769292   22.075661 C.3        1 MOL1         0.2972
      44    H21     18.936113   24.722777   22.195186 H          1 MOL1         0.0751
      45    O11     19.345872   22.675027   21.996563 O.3        1 MOL1        -0.3740
      46    C14     17.460054   23.571923   23.279680 C.3        1 MOL1         0.1003
      47    H22     16.826554   24.466218   23.342193 H          1 MOL1         0.0783
      48    O12     18.213599   23.438025   24.494161 O.3        1 MOL1        -0.5519
      49    H23     18.919294   22.777413   24.305903 H          1 MOL1         0.3769
      50    C15     16.535602   22.349974   23.103171 C.3        1 MOL1         0.1053
      51    H24     17.153453   21.448707   23.202402 H          1 MOL1         0.0783
      52    O13     15.549321   22.378045   24.141778 O.3        1 MOL1        -0.5519
      53    H25     16.055972   22.497931   24.974470 H          1 MOL1         0.3769
      54    C16     15.846191   22.290855   21.715359 C.3        1 MOL1         0.1018
      55    H26     15.004503   22.994759   21.707046 H          1 MOL1         0.0783
      56    C17     16.833805   22.623945   20.550296 C.3        1 MOL1         0.1043
      57    H27     17.494636   21.760644   20.422109 H          1 MOL1         0.0783
      58    O14     17.625878   23.796809   20.867096 O.3        1 MOL1        -0.3740
      59    C18     16.168434   22.944226   19.183596 C.3        1 MOL1         0.0138
      60    H28     15.898322   22.015367   18.670828 H          1 MOL1         0.0794
      61    H29     16.911603   23.439289   18.544079 H          1 MOL1         0.0794
      62    O15     15.013347   23.780425   19.322611 O.3        1 MOL1        -0.5486
      63    H30     14.705478   24.016418   18.420293 H          1 MOL1         0.3769
      64    C19     23.383724   22.359757   20.704279 C.3        1 MOL1         0.2972
      65    H31     24.285215   22.534132   20.103428 H          1 MOL1         0.0751
      66    O16     23.603256   21.330280   21.682951 O.3        1 MOL1        -0.3740
      67    C20     23.003350   23.655776   21.463818 C.3        1 MOL1         0.1003
      68    H32     22.916026   24.456907   20.718345 H          1 MOL1         0.0783
      69    O17     24.031847   23.993834   22.407466 O.3        1 MOL1        -0.5519
      70    H33     24.259673   23.155088   22.872059 H          1 MOL1         0.3769
      71    C21     21.641311   23.531500   22.191754 C.3        1 MOL1         0.1053
      72    H34     21.762074   22.830465   23.026449 H          1 MOL1         0.0783
      73    O18     21.288462   24.826396   22.687037 O.3        1 MOL1        -0.5519
      74    H35     22.089902   25.152177   23.152614 H          1 MOL1         0.3769
      75    C22     20.546265   22.970824   21.243028 C.3        1 MOL1         0.1018
      76    H36     20.344228   23.716082   20.462486 H          1 MOL1         0.0783
      77    C23     21.038056   21.667172   20.560573 C.3        1 MOL1         0.1043
      78    H37     21.210526   20.901703   21.327718 H          1 MOL1         0.0783
      79    O19     22.275146   21.960059   19.868204 O.3        1 MOL1        -0.3740
      80    C24     20.041740   21.070074   19.540578 C.3        1 MOL1         0.0138
      81    H38     19.247983   20.561196   20.101934 H          1 MOL1         0.0794
      82    H39     20.558317   20.300870   18.951895 H          1 MOL1         0.0794
      83    O20     19.478404   22.064192   18.674597 O.3        1 MOL1        -0.5486
      84    H40     19.029649   22.724774   19.245196 H          1 MOL1         0.3769
      85    C25     25.308069   17.578856   21.626445 C.3        1 MOL1         0.2972
      86    H41     25.953428   16.692057   21.585852 H          1 MOL1         0.0751
      87    O21     23.923309   17.217821   21.788587 O.3        1 MOL1        -0.3740
      88    C26     25.729752   18.464321   22.817718 C.3        1 MOL1         0.1003
      89    H42     26.776340   18.755456   22.659476 H          1 MOL1         0.0783
      90    O22     25.619746   17.723601   24.043703 O.3        1 MOL1        -0.5519
      91    H43     24.850259   17.114682   23.935873 H          1 MOL1         0.3769
      92    C27     24.881088   19.753297   22.885826 C.3        1 MOL1         0.1053
      93    H44     23.868002   19.470217   23.204710 H          1 MOL1         0.0783
      94    O23     25.465728   20.636976   23.848785 O.3        1 MOL1        -0.5519
      95    H45     25.514092   20.117378   24.679523 H          1 MOL1         0.3769
      96    C28     24.763713   20.482413   21.520654 C.3        1 MOL1         0.1018
      97    H46     25.670920   21.082225   21.372430 H          1 MOL1         0.0783
      98    C29     24.564150   19.509417   20.311409 C.3        1 MOL1         0.1043
      99    H47     23.519294   19.173182   20.323993 H          1 MOL1         0.0783
     100    O24     25.440658   18.359346   20.427214 O.3        1 MOL1        -0.3740
     101    C30     24.849760   20.118490   18.913239 C.3        1 MOL1         0.0138
     102    H48     23.997249   20.730614   18.597854 H          1 MOL1         0.0794
     103    H49     24.927567   19.297763   18.187454 H          1 MOL1         0.0794
     104    O25     26.049787   20.900908   18.895106 O.3        1 MOL1        -0.5486
     105    H50     26.218589   21.167137   17.964984 H          1 MOL1         0.3769
     106    C31     21.285284   14.097831   20.893265 C.3        1 MOL1         0.2972
     107    H51     20.835570   13.156133   20.553372 H          1 MOL1         0.0751
     108    O26     20.281339   15.067556   21.245146 O.3        1 MOL1        -0.3740
     109    C32     22.224906   13.867408   22.108152 C.3        1 MOL1         0.1003
     110    H52     23.020147   13.187842   21.775177 H          1 MOL1         0.0783
     111    O27     21.534052   13.264325   23.212621 O.3        1 MOL1        -0.5519
     112    H53     20.806509   13.884482   23.473318 H          1 MOL1         0.3769
     113    C33     22.889145   15.196968   22.543350 C.3        1 MOL1         0.1053
     114    H54     22.106434   15.864829   22.930526 H          1 MOL1         0.0783
     115    O28     23.857806   14.935758   23.565623 O.3        1 MOL1        -0.5519
     116    H55     23.409089   14.331571   24.197658 H          1 MOL1         0.3769
     117    C34     23.572019   15.893517   21.340182 C.3        1 MOL1         0.1018
     118    H56     24.456553   15.303743   21.065929 H          1 MOL1         0.0783
     119    C35     22.623856   15.993370   20.109424 C.3        1 MOL1         0.1043
     120    H57     21.808783   16.687131   20.356239 H          1 MOL1         0.0783
     121    O29     22.079181   14.677417   19.836539 O.3        1 MOL1        -0.3740
     122    C36     23.275506   16.509100   18.800478 C.3        1 MOL1         0.0138
     123    H58     23.195038   17.601797   18.775009 H          1 MOL1         0.0794
     124    H59     22.689878   16.133716   17.950647 H          1 MOL1         0.0794
     125    O30     24.646340   16.121258   18.656700 O.3        1 MOL1        -0.5486
     126    H60     25.177618   16.765118   19.180270 H          1 MOL1         0.3769
     127    C1      18.723135   19.258240   23.346061 C.2        1 MOL1         0.6173
     128    O1      17.649333   18.729606   23.564323 O.co2      1 MOL1        -0.6755
     129    O2      19.325041   19.154152   22.291396 O.co2      1 MOL1        -0.6755
     130    C2      19.285029   20.092864   24.443163 C.2        1 MOL1        -0.1504
     131    H1      18.663733   20.181315   25.331069 H          1 MOL1         0.0814
     132    C3      20.484599   20.711640   24.387291 C.2        1 MOL1        -0.1394
     133    H2      21.119192   20.608453   23.509756 H          1 MOL1         0.0817
     134    C4      21.046548   21.557239   25.511202 C.3        1 MOL1        -0.1849
     135    H3      20.527817   21.335751   26.453618 H          1 MOL1         0.0736
     136    H4      20.862040   22.618311   25.298990 H          1 MOL1         0.0736
     137    C5      22.563120   21.341263   25.700158 C.3        1 MOL1        -0.1866
     138    H5      23.087634   21.582667   24.766351 H          1 MOL1         0.0738
     139    H6      22.935000   22.043373   26.458552 H          1 MOL1         0.0738
     140    C6      22.903971   19.899295   26.135177 C.3        1 MOL1        -0.2879
     141    H7      22.603042   19.172643   25.369318 H          1 MOL1         0.0750
     142    H8      23.982843   19.788231   26.300236 H          1 MOL1         0.0750
     143    H9      22.390282   19.641262   27.070092 H          1 MOL1         0.0750
@<TRIPOS>BOND
    1     1     2    1
    2     1     3    1
    3     1     4    1
    4     4     5    1
    5     4     6    1
    6     6     7    1
    7     4     8    1
    8     8     9    1
    9     8    10    1
   10    10    11    1
   11     8    12    1
   12    12    13    1
   13    12    14    1
   14    14    15    1
   15     1    16    1
   16    14    16    1
   17    14    17    1
   18    17    18    1
   19    17    19    1
   20    17    20    1
   21    20    21    1
   22    22    23    1
   23    22    24    1
   24    22    25    1
   25    25    26    1
   26    25    27    1
   27    27    28    1
   28    25    29    1
   29    29    30    1
   30    29    31    1
   31    31    32    1
   32     3    33    1
   33    29    33    1
   34    33    34    1
   35    33    35    1
   36    35    36    1
   37    22    37    1
   38    35    37    1
   39    35    38    1
   40    38    39    1
   41    38    40    1
   42    38    41    1
   43    41    42    1
   44    43    44    1
   45    43    45    1
   46    43    46    1
   47    46    47    1
   48    46    48    1
   49    48    49    1
   50    46    50    1
   51    50    51    1
   52    50    52    1
   53    52    53    1
   54    24    54    1
   55    50    54    1
   56    54    55    1
   57    54    56    1
   58    56    57    1
   59    43    58    1
   60    56    58    1
   61    56    59    1
   62    59    60    1
   63    59    61    1
   64    59    62    1
   65    62    63    1
   66    64    65    1
   67    64    66    1
   68    64    67    1
   69    67    68    1
   70    67    69    1
   71    69    70    1
   72    67    71    1
   73    71    72    1
   74    71    73    1
   75    73    74    1
   76    45    75    1
   77    71    75    1
   78    75    76    1
   79    75    77    1
   80    77    78    1
   81    64    79    1
   82    77    79    1
   83    77    80    1
   84    80    81    1
   85    80    82    1
   86    80    83    1
   87    83    84    1
   88    85    86    1
   89    85    87    1
   90    85    88    1
   91    88    89    1
   92    88    90    1
   93    90    91    1
   94    88    92    1
   95    92    93    1
   96    92    94    1
   97    94    95    1
   98    66    96    1
   99    92    96    1
  100    96    97    1
  101    96    98    1
  102    98    99    1
  103    85   100    1
  104    98   100    1
  105    98   101    1
  106   101   102    1
  107   101   103    1
  108   101   104    1
  109   104   105    1
  110   106   107    1
  111    12   108    1
  112   106   108    1
  113   106   109    1
  114   109   110    1
  115   109   111    1
  116   111   112    1
  117   109   113    1
  118   113   114    1
  119   113   115    1
  120   115   116    1
  121    87   117    1
  122   113   117    1
  123   117   118    1
  124   117   119    1
  125   119   120    1
  126   106   121    1
  127   119   121    1
  128   119   122    1
  129   122   123    1
  130   122   124    1
  131   122   125    1
  132   125   126    1
  133   127   128    1
  134   127   129    2
  135   127   130    1
  136   130   131    1
  137   130   132    2
  138   132   133    1
  139   132   134    1
  140   134   135    1
  141   134   136    1
  142   134   137    1
  143   137   138    1
  144   137   139    1
  145   137   140    1
  146   140   141    1
  147   140   142    1
  148   140   143    1
@<TRIPOS>SUBSTRUCTURE
       1 MOL1            1 RESIDUE      1      MOL     
       2 MOL1          143 RESIDUE      1      MOL     
@<SCITEGIC>MOL_PROPERTY
feprocess Rank
SciTegic.value.IntegerValue
207

@<SCITEGIC>MOL_PROPERTY
Conf_Id
SciTegic.value.IntegerValue
360

@<SCITEGIC>MOL_PROPERTY
Probability
SciTegic.value.DoubleValue
0.00

@<SCITEGIC>MOL_PROPERTY
G
SciTegic.value.DoubleValue
513.791

@<SCITEGIC>MOL_PROPERTY
E
SciTegic.value.DoubleValue
332.218

@<SCITEGIC>MOL_PROPERTY
-TS
SciTegic.value.DoubleValue
181.573

@<SCITEGIC>MOL_PROPERTY
U+W
SciTegic.value.DoubleValue
206.130

@<SCITEGIC>MOL_PROPERTY
U
SciTegic.value.DoubleValue
270.241

@<SCITEGIC>MOL_PROPERTY
W
SciTegic.value.DoubleValue
-64.111

@<SCITEGIC>MOL_PROPERTY
W(PB)
SciTegic.value.DoubleValue
-70.229

@<SCITEGIC>MOL_PROPERTY
W(SA)
SciTegic.value.DoubleValue
6.118

@<SCITEGIC>MOL_PROPERTY
Valence
SciTegic.value.DoubleValue
142.904

@<SCITEGIC>MOL_PROPERTY
Coulomb
SciTegic.value.DoubleValue
151.408

@<SCITEGIC>MOL_PROPERTY
VdW
SciTegic.value.DoubleValue
-24.071

@<SCITEGIC>MOL_PROPERTY
VdW6
SciTegic.value.DoubleValue
-175.938

@<SCITEGIC>MOL_PROPERTY
VdW12
SciTegic.value.DoubleValue
151.867

@<SCITEGIC>MOL_PROPERTY
Bond
SciTegic.value.DoubleValue
4.726

@<SCITEGIC>MOL_PROPERTY
Angle
SciTegic.value.DoubleValue
17.761

@<SCITEGIC>MOL_PROPERTY
Pdih
SciTegic.value.DoubleValue
120.415

@<SCITEGIC>MOL_PROPERTY
Idih
SciTegic.value.DoubleValue
0.002

@<SCITEGIC>MOL_PROPERTY
Tether
SciTegic.value.DoubleValue
0.000

@<TRIPOS>MOLECULE
CD_guest-s19_fast_vm2_rndm.mol2 : feprocess host+ligand conformer 208
         143         148           2
SMALL
USER_CHARGES
 
@<TRIPOS>ATOM
       1    C1      16.487807   15.391510   21.814774 C.3        1 MOL1         0.2972
       2    H1      15.398751   15.318733   21.705880 H          1 MOL1         0.0751
       3    O1      16.881748   16.745266   22.127713 O.3        1 MOL1        -0.3740
       4    C2      16.957342   14.448028   22.952872 C.3        1 MOL1         0.1003
       5    H2      16.592736   13.440322   22.714962 H          1 MOL1         0.0783
       6    O2      16.405007   14.868542   24.208387 O.3        1 MOL1        -0.5519
       7    H3      16.465841   15.850557   24.212422 H          1 MOL1         0.3769
       8    C3      18.499315   14.385307   23.047422 C.3        1 MOL1         0.1053
       9    H4      18.857427   15.360221   23.405200 H          1 MOL1         0.0783
      10    O3      18.880143   13.360031   23.972594 O.3        1 MOL1        -0.5519
      11    H5      18.335651   13.521279   24.774078 H          1 MOL1         0.3769
      12    C4      19.143984   14.111934   21.667776 C.3        1 MOL1         0.1018
      13    H6      18.943669   13.070508   21.383528 H          1 MOL1         0.0783
      14    C5      18.584894   15.083647   20.590384 C.3        1 MOL1         0.1043
      15    H7      18.892406   16.097209   20.872387 H          1 MOL1         0.0783
      16    O4      17.139098   15.003151   20.586087 O.3        1 MOL1        -0.3740
      17    C6      19.069501   14.840695   19.138905 C.3        1 MOL1         0.0138
      18    H8      20.008323   15.385136   18.985420 H          1 MOL1         0.0794
      19    H9      18.336456   15.279899   18.449306 H          1 MOL1         0.0794
      20    O5      19.257348   13.455791   18.831656 O.3        1 MOL1        -0.5486
      21    H10     20.196862   13.249502   19.034663 H          1 MOL1         0.3769
      22    C7      15.299294   20.333436   20.618473 C.3        1 MOL1         0.2972
      23    H11     15.286934   19.918666   19.603276 H          1 MOL1         0.0751
      24    O6      14.829711   21.707613   20.552508 O.3        1 MOL1        -0.3740
      25    C8      14.322301   19.512253   21.513446 C.3        1 MOL1         0.1003
      26    H12     13.535393   19.137232   20.846368 H          1 MOL1         0.0783
      27    O7      13.717137   20.303046   22.550443 O.3        1 MOL1        -0.5519
      28    H13     14.168015   21.184651   22.538668 H          1 MOL1         0.3769
      29    C9      15.008936   18.290121   22.179734 C.3        1 MOL1         0.1053
      30    H14     15.405361   18.614314   23.152709 H          1 MOL1         0.0783
      31    O8      14.024848   17.268080   22.375345 O.3        1 MOL1        -0.5519
      32    H15     13.327030   17.678014   22.931093 H          1 MOL1         0.3769
      33    C10     16.212722   17.768485   21.352805 C.3        1 MOL1         0.1018
      34    H16     15.843956   17.367052   20.400639 H          1 MOL1         0.0783
      35    C11     17.241232   18.908418   21.082341 C.3        1 MOL1         0.1043
      36    H17     17.983080   18.878905   21.886614 H          1 MOL1         0.0783
      37    O9      16.632796   20.219019   21.140324 O.3        1 MOL1        -0.3740
      38    C12     18.023111   18.780558   19.750931 C.3        1 MOL1         0.0138
      39    H18     18.732162   17.948665   19.827856 H          1 MOL1         0.0794
      40    H19     18.619968   19.691919   19.619931 H          1 MOL1         0.0794
      41    O10     17.169168   18.594142   18.616009 O.3        1 MOL1        -0.5486
      42    H20     16.915633   17.647702   18.577806 H          1 MOL1         0.3769
      43    C13     18.151068   24.219673   21.610428 C.3        1 MOL1         0.2972
      44    H21     18.694817   25.155831   21.791900 H          1 MOL1         0.0751
      45    O11     19.040653   23.087730   21.715220 O.3        1 MOL1        -0.3740
      46    C14     16.984391   24.115627   22.634103 C.3        1 MOL1         0.1003
      47    H22     16.357588   25.002815   22.476557 H          1 MOL1         0.0783
      48    O12     17.459111   24.139798   23.987057 O.3        1 MOL1        -0.5519
      49    H23     17.972370   23.297184   24.132628 H          1 MOL1         0.3769
      50    C15     16.095673   22.875900   22.381906 C.3        1 MOL1         0.1053
      51    H24     16.691632   21.990414   22.626547 H          1 MOL1         0.0783
      52    O13     14.944757   22.941655   23.228924 O.3        1 MOL1        -0.5519
      53    H25     15.304187   23.072639   24.134813 H          1 MOL1         0.3769
      54    C16     15.656783   22.857846   20.891642 C.3        1 MOL1         0.1018
      55    H26     15.032378   23.749831   20.755776 H          1 MOL1         0.0783
      56    C17     16.859356   23.007786   19.919775 C.3        1 MOL1         0.1043
      57    H27     17.514895   22.139336   20.031170 H          1 MOL1         0.0783
      58    O14     17.597605   24.207752   20.272210 O.3        1 MOL1        -0.3740
      59    C18     16.449837   23.093412   18.428591 C.3        1 MOL1         0.0138
      60    H28     16.134519   22.094983   18.096266 H          1 MOL1         0.0794
      61    H29     17.330896   23.367093   17.833582 H          1 MOL1         0.0794
      62    O15     15.393018   24.033754   18.204086 O.3        1 MOL1        -0.5486
      63    H30     14.586218   23.672194   18.631692 H          1 MOL1         0.3769
      64    C19     23.205756   22.432843   21.325736 C.3        1 MOL1         0.2972
      65    H31     24.250764   22.651067   21.071959 H          1 MOL1         0.0751
      66    O16     23.055190   21.072392   21.778358 O.3        1 MOL1        -0.3740
      67    C20     22.757140   23.395205   22.454556 C.3        1 MOL1         0.1003
      68    H32     22.993657   24.412057   22.115064 H          1 MOL1         0.0783
      69    O17     23.492024   23.124255   23.659369 O.3        1 MOL1        -0.5519
      70    H33     23.733939   22.165384   23.637750 H          1 MOL1         0.3769
      71    C21     21.232345   23.342721   22.723239 C.3        1 MOL1         0.1053
      72    H34     20.997094   22.402618   23.238128 H          1 MOL1         0.0783
      73    O18     20.886726   24.459448   23.548689 O.3        1 MOL1        -0.5519
      74    H35     21.457701   24.382566   24.343186 H          1 MOL1         0.3769
      75    C22     20.420589   23.391057   21.404614 C.3        1 MOL1         0.1018
      76    H36     20.525553   24.395895   20.974216 H          1 MOL1         0.0783
      77    C23     20.955929   22.363952   20.371781 C.3        1 MOL1         0.1043
      78    H37     20.814009   21.352187   20.774910 H          1 MOL1         0.0783
      79    O19     22.366328   22.620465   20.168699 O.3        1 MOL1        -0.3740
      80    C24     20.270165   22.421634   18.982908 C.3        1 MOL1         0.0138
      81    H38     19.350040   21.828245   19.018102 H          1 MOL1         0.0794
      82    H39     20.927221   21.938197   18.248162 H          1 MOL1         0.0794
      83    O20     19.972898   23.757810   18.561108 O.3        1 MOL1        -0.5486
      84    H40     19.221072   24.078567   19.112654 H          1 MOL1         0.3769
      85    C25     25.097020   17.413802   21.302830 C.3        1 MOL1         0.2972
      86    H41     25.880024   16.684403   21.059309 H          1 MOL1         0.0751
      87    O21     23.903082   16.757351   21.766086 O.3        1 MOL1        -0.3740
      88    C26     25.591473   18.345103   22.440042 C.3        1 MOL1         0.1003
      89    H42     26.523996   18.814210   22.100320 H          1 MOL1         0.0783
      90    O22     25.849722   17.578860   23.626605 O.3        1 MOL1        -0.5519
      91    H43     25.178982   16.855628   23.639271 H          1 MOL1         0.3769
      92    C27     24.572332   19.471701   22.739604 C.3        1 MOL1         0.1053
      93    H44     23.680335   19.020724   23.189820 H          1 MOL1         0.0783
      94    O23     25.152064   20.409884   23.652509 O.3        1 MOL1        -0.5519
      95    H45     25.537338   19.862640   24.372199 H          1 MOL1         0.3769
      96    C28     24.153594   20.196058   21.439417 C.3        1 MOL1         0.1018
      97    H46     25.026125   20.753960   21.074761 H          1 MOL1         0.0783
      98    C29     23.707743   19.188527   20.343246 C.3        1 MOL1         0.1043
      99    H47     22.800966   18.678168   20.692381 H          1 MOL1         0.0783
     100    O24     24.764892   18.214589   20.147681 O.3        1 MOL1        -0.3740
     101    C30     23.378480   19.819504   18.965768 C.3        1 MOL1         0.0138
     102    H48     22.338008   20.166543   18.982841 H          1 MOL1         0.0794
     103    H49     23.441660   19.039690   18.196090 H          1 MOL1         0.0794
     104    O25     24.243160   20.906373   18.620586 O.3        1 MOL1        -0.5486
     105    H50     23.813228   21.723412   18.963052 H          1 MOL1         0.3769
     106    C31     21.480467   13.450702   21.247431 C.3        1 MOL1         0.2972
     107    H51     21.014013   12.485936   21.011095 H          1 MOL1         0.0751
     108    O26     20.547824   14.360036   21.860490 O.3        1 MOL1        -0.3740
     109    C32     22.640281   13.249233   22.249204 C.3        1 MOL1         0.1003
     110    H52     23.385361   12.594717   21.778626 H          1 MOL1         0.0783
     111    O27     22.146470   12.637251   23.451552 O.3        1 MOL1        -0.5519
     112    H53     21.276135   13.062834   23.644822 H          1 MOL1         0.3769
     113    C33     23.314828   14.601948   22.576658 C.3        1 MOL1         0.1053
     114    H54     22.592765   15.192784   23.150134 H          1 MOL1         0.0783
     115    O28     24.485489   14.376948   23.368894 O.3        1 MOL1        -0.5519
     116    H55     24.198384   13.768806   24.084954 H          1 MOL1         0.3769
     117    C34     23.682457   15.407666   21.303652 C.3        1 MOL1         0.1018
     118    H56     24.588557   14.963859   20.871330 H          1 MOL1         0.0783
     119    C35     22.535826   15.415431   20.246284 C.3        1 MOL1         0.1043
     120    H57     21.732217   16.057806   20.628755 H          1 MOL1         0.0783
     121    O29     22.023713   14.070480   20.065193 O.3        1 MOL1        -0.3740
     122    C36     22.913140   15.961120   18.844968 C.3        1 MOL1         0.0138
     123    H58     22.685816   17.032204   18.817807 H          1 MOL1         0.0794
     124    H59     22.264587   15.485345   18.097373 H          1 MOL1         0.0794
     125    O30     24.285155   15.749645   18.498373 O.3        1 MOL1        -0.5486
     126    H60     24.789123   16.500903   18.886963 H          1 MOL1         0.3769
     127    C1      18.409864   20.439466   24.351232 C.2        1 MOL1         0.6173
     128    O1      17.358646   19.828264   24.395240 O.co2      1 MOL1        -0.6755
     129    O2      18.499598   21.633726   24.560272 O.co2      1 MOL1        -0.6755
     130    C2      19.664630   19.716008   24.014093 C.2        1 MOL1        -0.1504
     131    H1      20.565781   20.321356   23.973255 H          1 MOL1         0.0814
     132    C3      19.731060   18.387685   23.776046 C.2        1 MOL1        -0.1394
     133    H2      18.840258   17.763272   23.828291 H          1 MOL1         0.0817
     134    C4      21.019676   17.676655   23.437334 C.3        1 MOL1        -0.1849
     135    H3      21.615175   18.308310   22.768276 H          1 MOL1         0.0736
     136    H4      20.806565   16.758197   22.879982 H          1 MOL1         0.0736
     137    C5      21.838373   17.346966   24.704454 C.3        1 MOL1        -0.1866
     138    H5      22.845686   17.019982   24.417408 H          1 MOL1         0.0738
     139    H6      21.970305   18.256088   25.306992 H          1 MOL1         0.0738
     140    C6      21.170394   16.247543   25.557615 C.3        1 MOL1        -0.2879
     141    H7      21.036435   15.324769   24.978829 H          1 MOL1         0.0750
     142    H8      21.786824   16.011501   26.434210 H          1 MOL1         0.0750
     143    H9      20.184396   16.571486   25.914876 H          1 MOL1         0.0750
@<TRIPOS>BOND
    1     1     2    1
    2     1     3    1
    3     1     4    1
    4     4     5    1
    5     4     6    1
    6     6     7    1
    7     4     8    1
    8     8     9    1
    9     8    10    1
   10    10    11    1
   11     8    12    1
   12    12    13    1
   13    12    14    1
   14    14    15    1
   15     1    16    1
   16    14    16    1
   17    14    17    1
   18    17    18    1
   19    17    19    1
   20    17    20    1
   21    20    21    1
   22    22    23    1
   23    22    24    1
   24    22    25    1
   25    25    26    1
   26    25    27    1
   27    27    28    1
   28    25    29    1
   29    29    30    1
   30    29    31    1
   31    31    32    1
   32     3    33    1
   33    29    33    1
   34    33    34    1
   35    33    35    1
   36    35    36    1
   37    22    37    1
   38    35    37    1
   39    35    38    1
   40    38    39    1
   41    38    40    1
   42    38    41    1
   43    41    42    1
   44    43    44    1
   45    43    45    1
   46    43    46    1
   47    46    47    1
   48    46    48    1
   49    48    49    1
   50    46    50    1
   51    50    51    1
   52    50    52    1
   53    52    53    1
   54    24    54    1
   55    50    54    1
   56    54    55    1
   57    54    56    1
   58    56    57    1
   59    43    58    1
   60    56    58    1
   61    56    59    1
   62    59    60    1
   63    59    61    1
   64    59    62    1
   65    62    63    1
   66    64    65    1
   67    64    66    1
   68    64    67    1
   69    67    68    1
   70    67    69    1
   71    69    70    1
   72    67    71    1
   73    71    72    1
   74    71    73    1
   75    73    74    1
   76    45    75    1
   77    71    75    1
   78    75    76    1
   79    75    77    1
   80    77    78    1
   81    64    79    1
   82    77    79    1
   83    77    80    1
   84    80    81    1
   85    80    82    1
   86    80    83    1
   87    83    84    1
   88    85    86    1
   89    85    87    1
   90    85    88    1
   91    88    89    1
   92    88    90    1
   93    90    91    1
   94    88    92    1
   95    92    93    1
   96    92    94    1
   97    94    95    1
   98    66    96    1
   99    92    96    1
  100    96    97    1
  101    96    98    1
  102    98    99    1
  103    85   100    1
  104    98   100    1
  105    98   101    1
  106   101   102    1
  107   101   103    1
  108   101   104    1
  109   104   105    1
  110   106   107    1
  111    12   108    1
  112   106   108    1
  113   106   109    1
  114   109   110    1
  115   109   111    1
  116   111   112    1
  117   109   113    1
  118   113   114    1
  119   113   115    1
  120   115   116    1
  121    87   117    1
  122   113   117    1
  123   117   118    1
  124   117   119    1
  125   119   120    1
  126   106   121    1
  127   119   121    1
  128   119   122    1
  129   122   123    1
  130   122   124    1
  131   122   125    1
  132   125   126    1
  133   127   128    1
  134   127   129    2
  135   127   130    1
  136   130   131    1
  137   130   132    2
  138   132   133    1
  139   132   134    1
  140   134   135    1
  141   134   136    1
  142   134   137    1
  143   137   138    1
  144   137   139    1
  145   137   140    1
  146   140   141    1
  147   140   142    1
  148   140   143    1
@<TRIPOS>SUBSTRUCTURE
       1 MOL1            1 RESIDUE      1      MOL     
       2 MOL1          143 RESIDUE      1      MOL     
@<SCITEGIC>MOL_PROPERTY
feprocess Rank
SciTegic.value.IntegerValue
208

@<SCITEGIC>MOL_PROPERTY
Conf_Id
SciTegic.value.IntegerValue
739

@<SCITEGIC>MOL_PROPERTY
Probability
SciTegic.value.DoubleValue
0.00

@<SCITEGIC>MOL_PROPERTY
G
SciTegic.value.DoubleValue
514.106

@<SCITEGIC>MOL_PROPERTY
E
SciTegic.value.DoubleValue
332.669

@<SCITEGIC>MOL_PROPERTY
-TS
SciTegic.value.DoubleValue
181.437

@<SCITEGIC>MOL_PROPERTY
U+W
SciTegic.value.DoubleValue
206.581

@<SCITEGIC>MOL_PROPERTY
U
SciTegic.value.DoubleValue
282.668

@<SCITEGIC>MOL_PROPERTY
W
SciTegic.value.DoubleValue
-76.087

@<SCITEGIC>MOL_PROPERTY
W(PB)
SciTegic.value.DoubleValue
-81.993

@<SCITEGIC>MOL_PROPERTY
W(SA)
SciTegic.value.DoubleValue
5.906

@<SCITEGIC>MOL_PROPERTY
Valence
SciTegic.value.DoubleValue
153.406

@<SCITEGIC>MOL_PROPERTY
Coulomb
SciTegic.value.DoubleValue
154.310

@<SCITEGIC>MOL_PROPERTY
VdW
SciTegic.value.DoubleValue
-25.048

@<SCITEGIC>MOL_PROPERTY
VdW6
SciTegic.value.DoubleValue
-181.184

@<SCITEGIC>MOL_PROPERTY
VdW12
SciTegic.value.DoubleValue
156.136

@<SCITEGIC>MOL_PROPERTY
Bond
SciTegic.value.DoubleValue
5.096

@<SCITEGIC>MOL_PROPERTY
Angle
SciTegic.value.DoubleValue
18.383

@<SCITEGIC>MOL_PROPERTY
Pdih
SciTegic.value.DoubleValue
129.927

@<SCITEGIC>MOL_PROPERTY
Idih
SciTegic.value.DoubleValue
0.001

@<SCITEGIC>MOL_PROPERTY
Tether
SciTegic.value.DoubleValue
0.000

@<TRIPOS>MOLECULE
CD_guest-s19_fast_vm2_rndm.mol2 : feprocess host+ligand conformer 209
         143         148           2
SMALL
USER_CHARGES
 
@<TRIPOS>ATOM
       1    C1      16.182585   15.295465   20.175234 C.3        1 MOL1         0.2972
       2    H1      15.171168   15.245404   19.751951 H          1 MOL1         0.0751
       3    O1      16.418660   16.543894   20.848296 O.3        1 MOL1        -0.3740
       4    C2      16.444713   14.133904   21.165959 C.3        1 MOL1         0.1003
       5    H2      16.370649   13.201325   20.591554 H          1 MOL1         0.0783
       6    O2      15.468963   14.107582   22.219321 O.3        1 MOL1        -0.5519
       7    H3      15.535944   14.972015   22.699114 H          1 MOL1         0.3769
       8    C3      17.878012   14.215288   21.752384 C.3        1 MOL1         0.1053
       9    H4      17.927101   15.088312   22.418710 H          1 MOL1         0.0783
      10    O3      18.122221   13.015953   22.495271 O.3        1 MOL1        -0.5519
      11    H5      17.351754   12.923704   23.097295 H          1 MOL1         0.3769
      12    C4      18.957500   14.394779   20.644091 C.3        1 MOL1         0.1018
      13    H6      19.162278   13.421017   20.182455 H          1 MOL1         0.0783
      14    C5      18.539390   15.414345   19.546052 C.3        1 MOL1         0.1043
      15    H7      18.619427   16.422591   19.976302 H          1 MOL1         0.0783
      16    O4      17.170530   15.177349   19.130509 O.3        1 MOL1        -0.3740
      17    C6      19.447362   15.402366   18.290870 C.3        1 MOL1         0.0138
      18    H8      20.380436   15.927161   18.531385 H          1 MOL1         0.0794
      19    H9      18.952212   15.980399   17.499338 H          1 MOL1         0.0794
      20    O5      19.740834   14.079923   17.822853 O.3        1 MOL1        -0.5486
      21    H10     20.340058   13.661841   18.478018 H          1 MOL1         0.3769
      22    C7      15.031121   20.083787   22.255336 C.3        1 MOL1         0.2972
      23    H11     14.466146   20.945334   22.626835 H          1 MOL1         0.0751
      24    O6      16.421187   20.421875   22.028975 O.3        1 MOL1        -0.3740
      25    C8      14.961644   18.942675   23.297231 C.3        1 MOL1         0.1003
      26    H12     13.904126   18.678671   23.427712 H          1 MOL1         0.0783
      27    O7      15.503326   19.371888   24.554928 O.3        1 MOL1        -0.5519
      28    H13     16.389973   19.753346   24.359313 H          1 MOL1         0.3769
      29    C9      15.711052   17.689207   22.796473 C.3        1 MOL1         0.1053
      30    H14     16.780101   17.928967   22.771054 H          1 MOL1         0.0783
      31    O8      15.480880   16.607506   23.705434 O.3        1 MOL1        -0.5519
      32    H15     15.675715   16.975950   24.595286 H          1 MOL1         0.3769
      33    C10     15.293949   17.275352   21.363882 C.3        1 MOL1         0.1018
      34    H16     14.381151   16.666975   21.411195 H          1 MOL1         0.0783
      35    C11     15.109495   18.479088   20.398461 C.3        1 MOL1         0.1043
      36    H17     16.110808   18.802388   20.107775 H          1 MOL1         0.0783
      37    O9      14.437715   19.593522   21.033871 O.3        1 MOL1        -0.3740
      38    C12     14.355158   18.118443   19.096868 C.3        1 MOL1         0.0138
      39    H18     15.002792   17.474854   18.486062 H          1 MOL1         0.0794
      40    H19     14.179480   19.039651   18.525411 H          1 MOL1         0.0794
      41    O10     13.114662   17.451630   19.360099 O.3        1 MOL1        -0.5486
      42    H20     12.658655   17.319194   18.500214 H          1 MOL1         0.3769
      43    C13     18.601977   23.878397   20.905620 C.3        1 MOL1         0.2972
      44    H21     18.909646   24.777678   20.357187 H          1 MOL1         0.0751
      45    O11     19.568217   23.530654   21.912215 O.3        1 MOL1        -0.3740
      46    C14     17.245897   24.132723   21.609301 C.3        1 MOL1         0.1003
      47    H22     16.537511   24.463644   20.838654 H          1 MOL1         0.0783
      48    O12     17.389651   25.164680   22.597098 O.3        1 MOL1        -0.5519
      49    H23     18.208804   24.944761   23.097876 H          1 MOL1         0.3769
      50    C15     16.669709   22.852565   22.266526 C.3        1 MOL1         0.1053
      51    H24     17.298708   22.602963   23.130335 H          1 MOL1         0.0783
      52    O13     15.339768   23.152032   22.700035 O.3        1 MOL1        -0.5519
      53    H25     15.412058   24.005731   23.181411 H          1 MOL1         0.3769
      54    C16     16.690465   21.639115   21.292252 C.3        1 MOL1         0.1018
      55    H26     15.944155   21.794789   20.503014 H          1 MOL1         0.0783
      56    C17     18.096660   21.498115   20.643064 C.3        1 MOL1         0.1043
      57    H27     18.823611   21.259698   21.429458 H          1 MOL1         0.0783
      58    O14     18.447024   22.753942   20.015644 O.3        1 MOL1        -0.3740
      59    C18     18.213980   20.387709   19.573531 C.3        1 MOL1         0.0138
      60    H28     18.151222   19.412901   20.076136 H          1 MOL1         0.0794
      61    H29     19.213865   20.443514   19.123851 H          1 MOL1         0.0794
      62    O15     17.210231   20.501723   18.554851 O.3        1 MOL1        -0.5486
      63    H30     16.338786   20.526623   18.999059 H          1 MOL1         0.3769
      64    C19     23.667052   22.894786   21.793008 C.3        1 MOL1         0.2972
      65    H31     24.760303   22.982985   21.755004 H          1 MOL1         0.0751
      66    O16     23.248611   21.517943   21.844330 O.3        1 MOL1        -0.3740
      67    C20     23.143912   23.629409   23.044463 C.3        1 MOL1         0.1003
      68    H32     23.466782   24.675894   22.968831 H          1 MOL1         0.0783
      69    O17     23.704469   23.044159   24.231207 O.3        1 MOL1        -0.5519
      70    H33     23.872221   22.091240   24.027603 H          1 MOL1         0.3769
      71    C21     21.600813   23.614518   23.106865 C.3        1 MOL1         0.1053
      72    H34     21.285608   22.589755   23.349359 H          1 MOL1         0.0783
      73    O18     21.181802   24.513627   24.139116 O.3        1 MOL1        -0.5519
      74    H35     21.606264   24.181463   24.958735 H          1 MOL1         0.3769
      75    C22     20.926150   24.015525   21.766754 C.3        1 MOL1         0.1018
      76    H36     20.939786   25.110123   21.688878 H          1 MOL1         0.0783
      77    C23     21.631376   23.389859   20.515008 C.3        1 MOL1         0.1043
      78    H37     21.350634   22.329658   20.462963 H          1 MOL1         0.0783
      79    O19     23.072667   23.503924   20.636126 O.3        1 MOL1        -0.3740
      80    C24     21.286626   24.046992   19.151393 C.3        1 MOL1         0.0138
      81    H38     20.320440   23.676467   18.792781 H          1 MOL1         0.0794
      82    H39     22.032495   23.721273   18.413685 H          1 MOL1         0.0794
      83    O20     21.266835   25.477776   19.225106 O.3        1 MOL1        -0.5486
      84    H40     21.143801   25.821764   18.313533 H          1 MOL1         0.3769
      85    C25     24.797311   17.735056   20.823818 C.3        1 MOL1         0.2972
      86    H41     25.455377   16.937177   20.456699 H          1 MOL1         0.0751
      87    O21     23.474778   17.237170   21.092454 O.3        1 MOL1        -0.3740
      88    C26     25.389112   18.416574   22.092901 C.3        1 MOL1         0.1003
      89    H42     26.360330   18.836384   21.800323 H          1 MOL1         0.0783
      90    O22     25.601243   17.487187   23.165737 O.3        1 MOL1        -0.5519
      91    H43     24.707815   17.160379   23.441662 H          1 MOL1         0.3769
      92    C27     24.494530   19.591268   22.562127 C.3        1 MOL1         0.1053
      93    H44     23.529369   19.185975   22.898517 H          1 MOL1         0.0783
      94    O23     25.139841   20.285912   23.636208 O.3        1 MOL1        -0.5519
      95    H45     25.460116   19.582289   24.243017 H          1 MOL1         0.3769
      96    C28     24.233187   20.567235   21.391302 C.3        1 MOL1         0.1018
      97    H46     25.184536   21.052291   21.135910 H          1 MOL1         0.0783
      98    C29     23.704309   19.819697   20.136875 C.3        1 MOL1         0.1043
      99    H47     22.721137   19.391713   20.377088 H          1 MOL1         0.0783
     100    O24     24.642635   18.758503   19.814093 O.3        1 MOL1        -0.3740
     101    C30     23.517325   20.699730   18.874703 C.3        1 MOL1         0.0138
     102    H48     22.521935   21.158675   18.914398 H          1 MOL1         0.0794
     103    H49     23.529110   20.047011   17.991706 H          1 MOL1         0.0794
     104    O25     24.513428   21.720468   18.743482 O.3        1 MOL1        -0.5486
     105    H50     24.232248   22.466268   19.322990 H          1 MOL1         0.3769
     106    C31     21.056956   14.042857   21.883384 C.3        1 MOL1         0.2972
     107    H51     20.572761   13.095680   22.149816 H          1 MOL1         0.0751
     108    O26     20.142022   14.952101   21.243938 O.3        1 MOL1        -0.3740
     109    C32     21.627175   14.725919   23.150797 C.3        1 MOL1         0.1003
     110    H52     22.378223   14.047763   23.575718 H          1 MOL1         0.0783
     111    O27     20.598607   14.960588   24.123811 O.3        1 MOL1        -0.5519
     112    H53     20.006868   15.664885   23.737812 H          1 MOL1         0.3769
     113    C33     22.324670   16.058074   22.795732 C.3        1 MOL1         0.1053
     114    H54     21.553773   16.768886   22.470222 H          1 MOL1         0.0783
     115    O28     22.985369   16.563258   23.961780 O.3        1 MOL1        -0.5519
     116    H55     22.297483   16.546502   24.663983 H          1 MOL1         0.3769
     117    C34     23.333609   15.908827   21.630531 C.3        1 MOL1         0.1018
     118    H56     24.278711   15.510188   22.021045 H          1 MOL1         0.0783
     119    C35     22.809279   15.011873   20.471287 C.3        1 MOL1         0.1043
     120    H57     22.074232   15.598310   19.907214 H          1 MOL1         0.0783
     121    O29     22.162396   13.817222   20.982195 O.3        1 MOL1        -0.3740
     122    C36     23.910374   14.587430   19.470512 C.3        1 MOL1         0.0138
     123    H58     24.214004   15.470372   18.892139 H          1 MOL1         0.0794
     124    H59     23.480604   13.866458   18.762222 H          1 MOL1         0.0794
     125    O30     25.050994   14.021060   20.127420 O.3        1 MOL1        -0.5486
     126    H60     25.668903   13.704517   19.432540 H          1 MOL1         0.3769
     127    C1      19.346554   18.439466   23.153582 C.2        1 MOL1         0.6173
     128    O1      19.243845   17.227819   23.196722 O.co2      1 MOL1        -0.6755
     129    O2      19.858810   19.043305   22.228117 O.co2      1 MOL1        -0.6755
     130    C2      18.763380   19.190772   24.298512 C.2        1 MOL1        -0.1504
     131    H1      18.306151   18.579955   25.073289 H          1 MOL1         0.0814
     132    C3      18.771131   20.537311   24.410306 C.2        1 MOL1        -0.1394
     133    H2      19.235528   21.155623   23.643925 H          1 MOL1         0.0817
     134    C4      18.154765   21.280692   25.577593 C.3        1 MOL1        -0.1849
     135    H3      18.071032   20.619420   26.450607 H          1 MOL1         0.0736
     136    H4      17.131292   21.582363   25.319726 H          1 MOL1         0.0736
     137    C5      18.960459   22.537869   25.966384 C.3        1 MOL1        -0.1866
     138    H5      19.029091   23.211737   25.102200 H          1 MOL1         0.0738
     139    H6      18.415977   23.085771   26.747279 H          1 MOL1         0.0738
     140    C6      20.374882   22.195735   26.483046 C.3        1 MOL1        -0.2879
     141    H7      20.972722   21.702227   25.705720 H          1 MOL1         0.0750
     142    H8      20.904876   23.105276   26.792227 H          1 MOL1         0.0750
     143    H9      20.322385   21.524134   27.349523 H          1 MOL1         0.0750
@<TRIPOS>BOND
    1     1     2    1
    2     1     3    1
    3     1     4    1
    4     4     5    1
    5     4     6    1
    6     6     7    1
    7     4     8    1
    8     8     9    1
    9     8    10    1
   10    10    11    1
   11     8    12    1
   12    12    13    1
   13    12    14    1
   14    14    15    1
   15     1    16    1
   16    14    16    1
   17    14    17    1
   18    17    18    1
   19    17    19    1
   20    17    20    1
   21    20    21    1
   22    22    23    1
   23    22    24    1
   24    22    25    1
   25    25    26    1
   26    25    27    1
   27    27    28    1
   28    25    29    1
   29    29    30    1
   30    29    31    1
   31    31    32    1
   32     3    33    1
   33    29    33    1
   34    33    34    1
   35    33    35    1
   36    35    36    1
   37    22    37    1
   38    35    37    1
   39    35    38    1
   40    38    39    1
   41    38    40    1
   42    38    41    1
   43    41    42    1
   44    43    44    1
   45    43    45    1
   46    43    46    1
   47    46    47    1
   48    46    48    1
   49    48    49    1
   50    46    50    1
   51    50    51    1
   52    50    52    1
   53    52    53    1
   54    24    54    1
   55    50    54    1
   56    54    55    1
   57    54    56    1
   58    56    57    1
   59    43    58    1
   60    56    58    1
   61    56    59    1
   62    59    60    1
   63    59    61    1
   64    59    62    1
   65    62    63    1
   66    64    65    1
   67    64    66    1
   68    64    67    1
   69    67    68    1
   70    67    69    1
   71    69    70    1
   72    67    71    1
   73    71    72    1
   74    71    73    1
   75    73    74    1
   76    45    75    1
   77    71    75    1
   78    75    76    1
   79    75    77    1
   80    77    78    1
   81    64    79    1
   82    77    79    1
   83    77    80    1
   84    80    81    1
   85    80    82    1
   86    80    83    1
   87    83    84    1
   88    85    86    1
   89    85    87    1
   90    85    88    1
   91    88    89    1
   92    88    90    1
   93    90    91    1
   94    88    92    1
   95    92    93    1
   96    92    94    1
   97    94    95    1
   98    66    96    1
   99    92    96    1
  100    96    97    1
  101    96    98    1
  102    98    99    1
  103    85   100    1
  104    98   100    1
  105    98   101    1
  106   101   102    1
  107   101   103    1
  108   101   104    1
  109   104   105    1
  110   106   107    1
  111    12   108    1
  112   106   108    1
  113   106   109    1
  114   109   110    1
  115   109   111    1
  116   111   112    1
  117   109   113    1
  118   113   114    1
  119   113   115    1
  120   115   116    1
  121    87   117    1
  122   113   117    1
  123   117   118    1
  124   117   119    1
  125   119   120    1
  126   106   121    1
  127   119   121    1
  128   119   122    1
  129   122   123    1
  130   122   124    1
  131   122   125    1
  132   125   126    1
  133   127   128    1
  134   127   129    2
  135   127   130    1
  136   130   131    1
  137   130   132    2
  138   132   133    1
  139   132   134    1
  140   134   135    1
  141   134   136    1
  142   134   137    1
  143   137   138    1
  144   137   139    1
  145   137   140    1
  146   140   141    1
  147   140   142    1
  148   140   143    1
@<TRIPOS>SUBSTRUCTURE
       1 MOL1            1 RESIDUE      1      MOL     
       2 MOL1          143 RESIDUE      1      MOL     
@<SCITEGIC>MOL_PROPERTY
feprocess Rank
SciTegic.value.IntegerValue
209

@<SCITEGIC>MOL_PROPERTY
Conf_Id
SciTegic.value.IntegerValue
220

@<SCITEGIC>MOL_PROPERTY
Probability
SciTegic.value.DoubleValue
0.00

@<SCITEGIC>MOL_PROPERTY
G
SciTegic.value.DoubleValue
515.881

@<SCITEGIC>MOL_PROPERTY
E
SciTegic.value.DoubleValue
334.538

@<SCITEGIC>MOL_PROPERTY
-TS
SciTegic.value.DoubleValue
181.343

@<SCITEGIC>MOL_PROPERTY
U+W
SciTegic.value.DoubleValue
208.450

@<SCITEGIC>MOL_PROPERTY
U
SciTegic.value.DoubleValue
271.156

@<SCITEGIC>MOL_PROPERTY
W
SciTegic.value.DoubleValue
-62.704

@<SCITEGIC>MOL_PROPERTY
W(PB)
SciTegic.value.DoubleValue
-68.882

@<SCITEGIC>MOL_PROPERTY
W(SA)
SciTegic.value.DoubleValue
6.177

@<SCITEGIC>MOL_PROPERTY
Valence
SciTegic.value.DoubleValue
144.131

@<SCITEGIC>MOL_PROPERTY
Coulomb
SciTegic.value.DoubleValue
149.442

@<SCITEGIC>MOL_PROPERTY
VdW
SciTegic.value.DoubleValue
-22.417

@<SCITEGIC>MOL_PROPERTY
VdW6
SciTegic.value.DoubleValue
-174.085

@<SCITEGIC>MOL_PROPERTY
VdW12
SciTegic.value.DoubleValue
151.668

@<SCITEGIC>MOL_PROPERTY
Bond
SciTegic.value.DoubleValue
4.864

@<SCITEGIC>MOL_PROPERTY
Angle
SciTegic.value.DoubleValue
17.414

@<SCITEGIC>MOL_PROPERTY
Pdih
SciTegic.value.DoubleValue
121.851

@<SCITEGIC>MOL_PROPERTY
Idih
SciTegic.value.DoubleValue
0.003

@<SCITEGIC>MOL_PROPERTY
Tether
SciTegic.value.DoubleValue
0.000

@<TRIPOS>MOLECULE
CD_guest-s19_fast_vm2_rndm.mol2 : feprocess host+ligand conformer 210
         143         148           2
SMALL
USER_CHARGES
 
@<TRIPOS>ATOM
       1    C1      15.770028   15.083921   20.147089 C.3        1 MOL1         0.2972
       2    H1      15.427535   14.479472   19.298165 H          1 MOL1         0.0751
       3    O1      14.549519   15.671510   20.678323 O.3        1 MOL1        -0.3740
       4    C2      16.397253   14.048253   21.144519 C.3        1 MOL1         0.1003
       5    H2      16.666607   13.176413   20.534359 H          1 MOL1         0.0783
       6    O2      15.447600   13.616695   22.132691 O.3        1 MOL1        -0.5519
       7    H3      15.080008   14.432048   22.556375 H          1 MOL1         0.3769
       8    C3      17.703322   14.507404   21.830166 C.3        1 MOL1         0.1053
       9    H4      17.457359   15.244668   22.602878 H          1 MOL1         0.0783
      10    O3      18.367338   13.385189   22.424316 O.3        1 MOL1        -0.5519
      11    H5      17.922999   13.255757   23.304960 H          1 MOL1         0.3769
      12    C4      18.618961   15.180442   20.794895 C.3        1 MOL1         0.1018
      13    H6      18.796302   14.491325   19.957813 H          1 MOL1         0.0783
      14    C5      17.913150   16.443065   20.260100 C.3        1 MOL1         0.1043
      15    H7      17.684426   17.102683   21.101723 H          1 MOL1         0.0783
      16    O4      16.691730   16.059624   19.582832 O.3        1 MOL1        -0.3740
      17    C6      18.769476   17.262856   19.262083 C.3        1 MOL1         0.0138
      18    H8      19.453327   17.903755   19.832666 H          1 MOL1         0.0794
      19    H9      18.107522   17.923669   18.691157 H          1 MOL1         0.0794
      20    O5      19.513671   16.438233   18.358474 O.3        1 MOL1        -0.5486
      21    H10     20.216157   15.985073   18.880852 H          1 MOL1         0.3769
      22    C7      14.951026   19.685627   22.215459 C.3        1 MOL1         0.2972
      23    H11     14.538608   20.597695   22.666709 H          1 MOL1         0.0751
      24    O6      16.336540   19.882895   21.864270 O.3        1 MOL1        -0.3740
      25    C8      14.820927   18.522297   23.242401 C.3        1 MOL1         0.1003
      26    H12     13.768117   18.490131   23.551516 H          1 MOL1         0.0783
      27    O7      15.624241   18.796228   24.394948 O.3        1 MOL1        -0.5519
      28    H13     16.444656   19.228836   24.072215 H          1 MOL1         0.3769
      29    C9      15.163687   17.134341   22.640720 C.3        1 MOL1         0.1053
      30    H14     16.240716   17.090030   22.473236 H          1 MOL1         0.0783
      31    O8      14.756479   16.097386   23.540709 O.3        1 MOL1        -0.5519
      32    H15     15.271026   16.197959   24.386732 H          1 MOL1         0.3769
      33    C10     14.400074   16.975742   21.303755 C.3        1 MOL1         0.1018
      34    H16     13.338871   17.049748   21.575118 H          1 MOL1         0.0783
      35    C11     14.661150   18.152830   20.330412 C.3        1 MOL1         0.1043
      36    H17     15.731085   18.214259   20.114034 H          1 MOL1         0.0783
      37    O9      14.240875   19.369962   20.993905 O.3        1 MOL1        -0.3740
      38    C12     13.903243   18.031719   18.984675 C.3        1 MOL1         0.0138
      39    H18     14.411454   17.279210   18.366647 H          1 MOL1         0.0794
      40    H19     13.969720   18.987026   18.448316 H          1 MOL1         0.0794
      41    O10     12.531802   17.660217   19.163552 O.3        1 MOL1        -0.5486
      42    H20     12.528213   16.753187   19.541893 H          1 MOL1         0.3769
      43    C13     18.728600   23.273106   21.065323 C.3        1 MOL1         0.2972
      44    H21     19.010970   24.292403   20.770996 H          1 MOL1         0.0751
      45    O11     19.888689   22.463229   21.319232 O.3        1 MOL1        -0.3740
      46    C14     17.864442   23.327696   22.350876 C.3        1 MOL1         0.1003
      47    H22     17.001293   23.969162   22.130371 H          1 MOL1         0.0783
      48    O12     18.605116   23.897301   23.442998 O.3        1 MOL1        -0.5519
      49    H23     19.484840   24.169024   23.082649 H          1 MOL1         0.3769
      50    C15     17.331768   21.928087   22.735615 C.3        1 MOL1         0.1053
      51    H24     18.183671   21.310332   23.046645 H          1 MOL1         0.0783
      52    O13     16.406047   22.069344   23.816419 O.3        1 MOL1        -0.5519
      53    H25     16.869212   22.635811   24.472453 H          1 MOL1         0.3769
      54    C16     16.645886   21.254430   21.521211 C.3        1 MOL1         0.1018
      55    H26     15.735399   21.822519   21.287659 H          1 MOL1         0.0783
      56    C17     17.559039   21.270915   20.266814 C.3        1 MOL1         0.1043
      57    H27     18.436455   20.641870   20.464970 H          1 MOL1         0.0783
      58    O14     17.982110   22.633357   20.007883 O.3        1 MOL1        -0.3740
      59    C18     16.869970   20.740113   18.984948 C.3        1 MOL1         0.0138
      60    H28     16.888915   19.646464   19.005313 H          1 MOL1         0.0794
      61    H29     17.458772   21.053886   18.112554 H          1 MOL1         0.0794
      62    O15     15.515793   21.189724   18.854062 O.3        1 MOL1        -0.5486
      63    H30     14.986783   20.744743   19.555988 H          1 MOL1         0.3769
      64    C19     24.040578   22.825190   20.894747 C.3        1 MOL1         0.2972
      65    H31     25.042846   23.093132   20.538145 H          1 MOL1         0.0751
      66    O16     24.106737   21.891718   21.990976 O.3        1 MOL1        -0.3740
      67    C20     23.307686   24.084744   21.427882 C.3        1 MOL1         0.1003
      68    H32     23.243201   24.806819   20.603420 H          1 MOL1         0.0783
      69    O17     24.041414   24.665374   22.515855 O.3        1 MOL1        -0.5519
      70    H33     24.250655   23.921934   23.125986 H          1 MOL1         0.3769
      71    C21     21.867587   23.739848   21.884931 C.3        1 MOL1         0.1053
      72    H34     21.929209   23.081587   22.762769 H          1 MOL1         0.0783
      73    O18     21.175300   24.944939   22.229815 O.3        1 MOL1        -0.5519
      74    H35     21.819005   25.468470   22.758147 H          1 MOL1         0.3769
      75    C22     21.111294   22.982205   20.767631 C.3        1 MOL1         0.1018
      76    H36     20.921490   23.675313   19.937102 H          1 MOL1         0.0783
      77    C23     21.929098   21.780981   20.231711 C.3        1 MOL1         0.1043
      78    H37     22.045782   21.050427   21.040915 H          1 MOL1         0.0783
      79    O19     23.237329   22.255243   19.832469 O.3        1 MOL1        -0.3740
      80    C24     21.261472   21.044740   19.039555 C.3        1 MOL1         0.0138
      81    H38     20.603311   20.263244   19.440032 H          1 MOL1         0.0794
      82    H39     22.041820   20.540166   18.455123 H          1 MOL1         0.0794
      83    O20     20.500029   21.913277   18.191536 O.3        1 MOL1        -0.5486
      84    H40     19.728441   22.233196   18.713525 H          1 MOL1         0.3769
      85    C25     25.112462   17.923000   22.232921 C.3        1 MOL1         0.2972
      86    H41     25.563424   16.926281   22.324372 H          1 MOL1         0.0751
      87    O21     23.684617   17.846554   22.049737 O.3        1 MOL1        -0.3740
      88    C26     25.432755   18.746380   23.496438 C.3        1 MOL1         0.1003
      89    H42     26.524016   18.852556   23.552395 H          1 MOL1         0.0783
      90    O22     24.960822   18.073556   24.674776 O.3        1 MOL1        -0.5519
      91    H43     24.298749   17.400092   24.377678 H          1 MOL1         0.3769
      92    C27     24.820674   20.157901   23.398005 C.3        1 MOL1         0.1053
      93    H44     23.729923   20.045967   23.469570 H          1 MOL1         0.0783
      94    O23     25.293283   20.939352   24.500205 O.3        1 MOL1        -0.5519
      95    H45     25.161782   20.367842   25.289144 H          1 MOL1         0.3769
      96    C28     25.140659   20.878067   22.057009 C.3        1 MOL1         0.1018
      97    H46     26.131055   21.341241   22.141706 H          1 MOL1         0.0783
      98    C29     25.104499   19.929545   20.808286 C.3        1 MOL1         0.1043
      99    H47     24.056635   19.802412   20.515492 H          1 MOL1         0.0783
     100    O24     25.665959   18.625464   21.108841 O.3        1 MOL1        -0.3740
     101    C30     25.891589   20.442886   19.571922 C.3        1 MOL1         0.0138
     102    H48     25.373839   21.293635   19.116337 H          1 MOL1         0.0794
     103    H49     25.895458   19.645349   18.816759 H          1 MOL1         0.0794
     104    O25     27.241208   20.806542   19.890644 O.3        1 MOL1        -0.5486
     105    H50     27.224199   21.642014   20.402395 H          1 MOL1         0.3769
     106    C31     20.980831   14.734044   21.090723 C.3        1 MOL1         0.2972
     107    H51     20.652234   13.752969   20.723536 H          1 MOL1         0.0751
     108    O26     19.851956   15.557322   21.440779 O.3        1 MOL1        -0.3740
     109    C32     21.882537   14.532917   22.339203 C.3        1 MOL1         0.1003
     110    H52     22.701296   13.867495   22.035995 H          1 MOL1         0.0783
     111    O27     21.156383   13.909726   23.408609 O.3        1 MOL1        -0.5519
     112    H53     20.205864   13.883706   23.135353 H          1 MOL1         0.3769
     113    C33     22.513322   15.862927   22.812744 C.3        1 MOL1         0.1053
     114    H54     21.713062   16.518007   23.183413 H          1 MOL1         0.0783
     115    O28     23.455088   15.594710   23.856455 O.3        1 MOL1        -0.5519
     116    H55     22.989687   14.967431   24.454619 H          1 MOL1         0.3769
     117    C34     23.212527   16.555118   21.620885 C.3        1 MOL1         0.1018
     118    H56     24.037807   15.916576   21.277772 H          1 MOL1         0.0783
     119    C35     22.225402   16.742665   20.443328 C.3        1 MOL1         0.1043
     120    H57     21.398012   17.376181   20.786836 H          1 MOL1         0.0783
     121    O29     21.720750   15.436290   20.064839 O.3        1 MOL1        -0.3740
     122    C36     22.844042   17.416217   19.191542 C.3        1 MOL1         0.0138
     123    H58     22.788496   18.502738   19.321763 H          1 MOL1         0.0794
     124    H59     22.228710   17.169710   18.316094 H          1 MOL1         0.0794
     125    O30     24.204559   17.030819   18.960327 O.3        1 MOL1        -0.5486
     126    H60     24.753724   17.449079   19.663636 H          1 MOL1         0.3769
     127    C1      17.382881   15.049652   25.368689 C.2        1 MOL1         0.6173
     128    O1      17.526580   13.879883   25.067829 O.co2      1 MOL1        -0.6755
     129    O2      16.350418   15.499319   25.829890 O.co2      1 MOL1        -0.6755
     130    C2      18.489172   15.982413   25.025078 C.2        1 MOL1        -0.1504
     131    H1      19.343722   15.541360   24.520282 H          1 MOL1         0.0814
     132    C3      18.460142   17.310184   25.274897 C.2        1 MOL1        -0.1394
     133    H2      17.611637   17.764001   25.784747 H          1 MOL1         0.0817
     134    C4      19.552408   18.261735   24.843300 C.3        1 MOL1        -0.1849
     135    H3      20.538434   17.826938   25.055510 H          1 MOL1         0.0736
     136    H4      19.485406   19.194470   25.418872 H          1 MOL1         0.0736
     137    C5      19.426319   18.568868   23.339420 C.3        1 MOL1        -0.1866
     138    H5      19.479728   17.633346   22.775040 H          1 MOL1         0.0738
     139    H6      18.440913   19.001758   23.136132 H          1 MOL1         0.0738
     140    C6      20.525728   19.522165   22.843421 C.3        1 MOL1        -0.2879
     141    H7      20.471287   20.490837   23.356970 H          1 MOL1         0.0750
     142    H8      21.521293   19.097730   23.019127 H          1 MOL1         0.0750
     143    H9      20.409637   19.695893   21.768997 H          1 MOL1         0.0750
@<TRIPOS>BOND
    1     1     2    1
    2     1     3    1
    3     1     4    1
    4     4     5    1
    5     4     6    1
    6     6     7    1
    7     4     8    1
    8     8     9    1
    9     8    10    1
   10    10    11    1
   11     8    12    1
   12    12    13    1
   13    12    14    1
   14    14    15    1
   15     1    16    1
   16    14    16    1
   17    14    17    1
   18    17    18    1
   19    17    19    1
   20    17    20    1
   21    20    21    1
   22    22    23    1
   23    22    24    1
   24    22    25    1
   25    25    26    1
   26    25    27    1
   27    27    28    1
   28    25    29    1
   29    29    30    1
   30    29    31    1
   31    31    32    1
   32     3    33    1
   33    29    33    1
   34    33    34    1
   35    33    35    1
   36    35    36    1
   37    22    37    1
   38    35    37    1
   39    35    38    1
   40    38    39    1
   41    38    40    1
   42    38    41    1
   43    41    42    1
   44    43    44    1
   45    43    45    1
   46    43    46    1
   47    46    47    1
   48    46    48    1
   49    48    49    1
   50    46    50    1
   51    50    51    1
   52    50    52    1
   53    52    53    1
   54    24    54    1
   55    50    54    1
   56    54    55    1
   57    54    56    1
   58    56    57    1
   59    43    58    1
   60    56    58    1
   61    56    59    1
   62    59    60    1
   63    59    61    1
   64    59    62    1
   65    62    63    1
   66    64    65    1
   67    64    66    1
   68    64    67    1
   69    67    68    1
   70    67    69    1
   71    69    70    1
   72    67    71    1
   73    71    72    1
   74    71    73    1
   75    73    74    1
   76    45    75    1
   77    71    75    1
   78    75    76    1
   79    75    77    1
   80    77    78    1
   81    64    79    1
   82    77    79    1
   83    77    80    1
   84    80    81    1
   85    80    82    1
   86    80    83    1
   87    83    84    1
   88    85    86    1
   89    85    87    1
   90    85    88    1
   91    88    89    1
   92    88    90    1
   93    90    91    1
   94    88    92    1
   95    92    93    1
   96    92    94    1
   97    94    95    1
   98    66    96    1
   99    92    96    1
  100    96    97    1
  101    96    98    1
  102    98    99    1
  103    85   100    1
  104    98   100    1
  105    98   101    1
  106   101   102    1
  107   101   103    1
  108   101   104    1
  109   104   105    1
  110   106   107    1
  111    12   108    1
  112   106   108    1
  113   106   109    1
  114   109   110    1
  115   109   111    1
  116   111   112    1
  117   109   113    1
  118   113   114    1
  119   113   115    1
  120   115   116    1
  121    87   117    1
  122   113   117    1
  123   117   118    1
  124   117   119    1
  125   119   120    1
  126   106   121    1
  127   119   121    1
  128   119   122    1
  129   122   123    1
  130   122   124    1
  131   122   125    1
  132   125   126    1
  133   127   128    1
  134   127   129    2
  135   127   130    1
  136   130   131    1
  137   130   132    2
  138   132   133    1
  139   132   134    1
  140   134   135    1
  141   134   136    1
  142   134   137    1
  143   137   138    1
  144   137   139    1
  145   137   140    1
  146   140   141    1
  147   140   142    1
  148   140   143    1
@<TRIPOS>SUBSTRUCTURE
       1 MOL1            1 RESIDUE      1      MOL     
       2 MOL1          143 RESIDUE      1      MOL     
@<SCITEGIC>MOL_PROPERTY
feprocess Rank
SciTegic.value.IntegerValue
210

@<SCITEGIC>MOL_PROPERTY
Conf_Id
SciTegic.value.IntegerValue
893

@<SCITEGIC>MOL_PROPERTY
Probability
SciTegic.value.DoubleValue
0.00

@<SCITEGIC>MOL_PROPERTY
G
SciTegic.value.DoubleValue
516.023

@<SCITEGIC>MOL_PROPERTY
E
SciTegic.value.DoubleValue
332.069

@<SCITEGIC>MOL_PROPERTY
-TS
SciTegic.value.DoubleValue
183.954

@<SCITEGIC>MOL_PROPERTY
U+W
SciTegic.value.DoubleValue
205.981

@<SCITEGIC>MOL_PROPERTY
U
SciTegic.value.DoubleValue
284.933

@<SCITEGIC>MOL_PROPERTY
W
SciTegic.value.DoubleValue
-78.952

@<SCITEGIC>MOL_PROPERTY
W(PB)
SciTegic.value.DoubleValue
-84.758

@<SCITEGIC>MOL_PROPERTY
W(SA)
SciTegic.value.DoubleValue
5.806

@<SCITEGIC>MOL_PROPERTY
Valence
SciTegic.value.DoubleValue
162.982

@<SCITEGIC>MOL_PROPERTY
Coulomb
SciTegic.value.DoubleValue
150.141

@<SCITEGIC>MOL_PROPERTY
VdW
SciTegic.value.DoubleValue
-28.191

@<SCITEGIC>MOL_PROPERTY
VdW6
SciTegic.value.DoubleValue
-188.529

@<SCITEGIC>MOL_PROPERTY
VdW12
SciTegic.value.DoubleValue
160.339

@<SCITEGIC>MOL_PROPERTY
Bond
SciTegic.value.DoubleValue
5.483

@<SCITEGIC>MOL_PROPERTY
Angle
SciTegic.value.DoubleValue
25.825

@<SCITEGIC>MOL_PROPERTY
Pdih
SciTegic.value.DoubleValue
131.644

@<SCITEGIC>MOL_PROPERTY
Idih
SciTegic.value.DoubleValue
0.029

@<SCITEGIC>MOL_PROPERTY
Tether
SciTegic.value.DoubleValue
0.000

@<TRIPOS>MOLECULE
CD_guest-s19_fast_vm2_rndm.mol2 : feprocess host+ligand conformer 211
         143         148           2
SMALL
USER_CHARGES
 
@<TRIPOS>ATOM
       1    C1      16.060233   15.331333   20.493664 C.3        1 MOL1         0.2972
       2    H1      15.987336   14.962532   19.463952 H          1 MOL1         0.0751
       3    O1      14.740188   15.801215   20.891085 O.3        1 MOL1        -0.3740
       4    C2      16.478498   14.133941   21.413261 C.3        1 MOL1         0.1003
       5    H2      16.499969   13.243759   20.771295 H          1 MOL1         0.0783
       6    O2      15.568991   13.892208   22.501025 O.3        1 MOL1        -0.5519
       7    H3      15.272664   14.781289   22.821234 H          1 MOL1         0.3769
       8    C3      17.897709   14.308306   21.999188 C.3        1 MOL1         0.1053
       9    H4      17.866619   15.093067   22.768588 H          1 MOL1         0.0783
      10    O3      18.315846   13.064322   22.574436 O.3        1 MOL1        -0.5519
      11    H5      17.564851   12.783473   23.142858 H          1 MOL1         0.3769
      12    C4      18.882271   14.749483   20.897362 C.3        1 MOL1         0.1018
      13    H6      18.943214   13.935999   20.162782 H          1 MOL1         0.0783
      14    C5      18.416583   16.065383   20.203469 C.3        1 MOL1         0.1043
      15    H7      19.035323   16.885406   20.590688 H          1 MOL1         0.0783
      16    O4      17.042714   16.390816   20.539555 O.3        1 MOL1        -0.3740
      17    C6      18.588087   16.060204   18.663757 C.3        1 MOL1         0.0138
      18    H8      19.660926   16.085913   18.433070 H          1 MOL1         0.0794
      19    H9      18.147380   16.981627   18.260129 H          1 MOL1         0.0794
      20    O5      17.990617   14.911511   18.049019 O.3        1 MOL1        -0.5486
      21    H10     18.140530   14.979845   17.080810 H          1 MOL1         0.3769
      22    C7      14.946369   19.902809   22.230943 C.3        1 MOL1         0.2972
      23    H11     14.511681   20.810169   22.664425 H          1 MOL1         0.0751
      24    O6      16.275341   20.153195   21.750846 O.3        1 MOL1        -0.3740
      25    C8      15.009665   18.797071   23.326381 C.3        1 MOL1         0.1003
      26    H12     14.014614   18.751960   23.787194 H          1 MOL1         0.0783
      27    O7      15.980580   19.129576   24.330787 O.3        1 MOL1        -0.5519
      28    H13     16.862952   19.136449   23.862234 H          1 MOL1         0.3769
      29    C9      15.337557   17.392812   22.765860 C.3        1 MOL1         0.1053
      30    H14     16.402131   17.392879   22.512775 H          1 MOL1         0.0783
      31    O8      15.077336   16.426663   23.788110 O.3        1 MOL1        -0.5519
      32    H15     15.520962   16.783466   24.590071 H          1 MOL1         0.3769
      33    C10     14.482428   17.099201   21.504169 C.3        1 MOL1         0.1018
      34    H16     13.438243   17.089805   21.841664 H          1 MOL1         0.0783
      35    C11     14.596836   18.241215   20.463820 C.3        1 MOL1         0.1043
      36    H17     15.643010   18.345802   20.158622 H          1 MOL1         0.0783
      37    O9      14.153488   19.463814   21.100588 O.3        1 MOL1        -0.3740
      38    C12     13.750503   18.012803   19.186621 C.3        1 MOL1         0.0138
      39    H18     14.260632   17.267283   18.561721 H          1 MOL1         0.0794
      40    H19     13.715489   18.946911   18.610883 H          1 MOL1         0.0794
      41    O10     12.422410   17.565337   19.482706 O.3        1 MOL1        -0.5486
      42    H20     12.504715   16.674533   19.889396 H          1 MOL1         0.3769
      43    C13     18.599673   23.469550   20.668321 C.3        1 MOL1         0.2972
      44    H21     18.924603   24.411069   20.207335 H          1 MOL1         0.0751
      45    O11     19.681423   22.826879   21.369447 O.3        1 MOL1        -0.3740
      46    C14     17.478452   23.761699   21.692980 C.3        1 MOL1         0.1003
      47    H22     16.671616   24.273978   21.152820 H          1 MOL1         0.0783
      48    O12     17.967795   24.623173   22.734180 O.3        1 MOL1        -0.5519
      49    H23     18.944664   24.475854   22.787024 H          1 MOL1         0.3769
      50    C15     16.891280   22.460402   22.292957 C.3        1 MOL1         0.1053
      51    H24     17.654239   21.992958   22.931647 H          1 MOL1         0.0783
      52    O13     15.746503   22.822534   23.072094 O.3        1 MOL1        -0.5519
      53    H25     16.053617   23.558828   23.646114 H          1 MOL1         0.3769
      54    C16     16.515278   21.450386   21.172588 C.3        1 MOL1         0.1018
      55    H26     15.632405   21.818042   20.634130 H          1 MOL1         0.0783
      56    C17     17.686656   21.265735   20.174632 C.3        1 MOL1         0.1043
      57    H27     18.518690   20.807809   20.720906 H          1 MOL1         0.0783
      58    O14     18.094469   22.560110   19.666841 O.3        1 MOL1        -0.3740
      59    C18     17.363330   20.332198   18.983049 C.3        1 MOL1         0.0138
      60    H28     17.453270   19.294503   19.331338 H          1 MOL1         0.0794
      61    H29     18.123432   20.474927   18.203776 H          1 MOL1         0.0794
      62    O15     16.053323   20.557207   18.447199 O.3        1 MOL1        -0.5486
      63    H30     15.413646   20.394253   19.174239 H          1 MOL1         0.3769
      64    C19     23.905884   22.835602   21.246846 C.3        1 MOL1         0.2972
      65    H31     24.925594   23.096986   20.935993 H          1 MOL1         0.0751
      66    O16     23.925044   21.791434   22.237743 O.3        1 MOL1        -0.3740
      67    C20     23.211598   24.074178   21.874984 C.3        1 MOL1         0.1003
      68    H32     23.260122   24.886849   21.138534 H          1 MOL1         0.0783
      69    O17     23.895978   24.474874   23.071142 O.3        1 MOL1        -0.5519
      70    H33     24.055177   23.646470   23.579173 H          1 MOL1         0.3769
      71    C21     21.719069   23.799020   22.185612 C.3        1 MOL1         0.1053
      72    H34     21.663548   23.060261   22.997316 H          1 MOL1         0.0783
      73    O18     21.082072   25.017406   22.587411 O.3        1 MOL1        -0.5519
      74    H35     21.689595   25.421486   23.246080 H          1 MOL1         0.3769
      75    C22     21.003157   23.210240   20.949086 C.3        1 MOL1         0.1018
      76    H36     20.977325   23.977088   20.163569 H          1 MOL1         0.0783
      77    C23     21.763811   21.969629   20.414566 C.3        1 MOL1         0.1043
      78    H37     21.769713   21.193861   21.192830 H          1 MOL1         0.0783
      79    O19     23.118541   22.386283   20.119791 O.3        1 MOL1        -0.3740
      80    C24     21.169352   21.335121   19.132015 C.3        1 MOL1         0.0138
      81    H38     20.383904   20.627992   19.427322 H          1 MOL1         0.0794
      82    H39     21.955358   20.749568   18.637816 H          1 MOL1         0.0794
      83    O20     20.636834   22.300647   18.218097 O.3        1 MOL1        -0.5486
      84    H40     19.739832   22.537957   18.550572 H          1 MOL1         0.3769
      85    C25     25.168201   17.874346   22.154441 C.3        1 MOL1         0.2972
      86    H41     25.681164   16.903703   22.150234 H          1 MOL1         0.0751
      87    O21     23.743317   17.718326   22.018382 O.3        1 MOL1        -0.3740
      88    C26     25.481625   18.618110   23.467585 C.3        1 MOL1         0.1003
      89    H42     26.564181   18.798767   23.493580 H          1 MOL1         0.0783
      90    O22     25.107650   17.818137   24.600084 O.3        1 MOL1        -0.5519
      91    H43     24.562280   17.071931   24.253192 H          1 MOL1         0.3769
      92    C27     24.767559   19.985371   23.502263 C.3        1 MOL1         0.1053
      93    H44     23.688459   19.794800   23.584325 H          1 MOL1         0.0783
      94    O23     25.216709   20.705768   24.654797 O.3        1 MOL1        -0.5519
      95    H45     25.144799   20.064197   25.395294 H          1 MOL1         0.3769
      96    C28     25.010938   20.829658   22.219869 C.3        1 MOL1         0.1018
      97    H46     25.976906   21.339303   22.325528 H          1 MOL1         0.0783
      98    C29     25.001385   19.986495   20.895373 C.3        1 MOL1         0.1043
      99    H47     23.955420   19.834562   20.607053 H          1 MOL1         0.0783
     100    O24     25.634406   18.692349   21.070769 O.3        1 MOL1        -0.3740
     101    C30     25.746091   20.635227   19.696559 C.3        1 MOL1         0.0138
     102    H48     25.136981   21.431445   19.257225 H          1 MOL1         0.0794
     103    H49     25.866459   19.874193   18.913548 H          1 MOL1         0.0794
     104    O25     27.026896   21.156027   20.072011 O.3        1 MOL1        -0.5486
     105    H50     27.476187   21.461677   19.253814 H          1 MOL1         0.3769
     106    C31     21.298105   14.468602   20.816525 C.3        1 MOL1         0.2972
     107    H51     21.047056   13.546153   20.277564 H          1 MOL1         0.0751
     108    O26     20.155337   14.955427   21.546787 O.3        1 MOL1        -0.3740
     109    C32     22.423949   14.167980   21.845109 C.3        1 MOL1         0.1003
     110    H52     23.249971   13.694583   21.298585 H          1 MOL1         0.0783
     111    O27     21.944199   13.264614   22.852222 O.3        1 MOL1        -0.5519
     112    H53     21.000877   13.508982   23.006883 H          1 MOL1         0.3769
     113    C33     22.968128   15.460269   22.501449 C.3        1 MOL1         0.1053
     114    H54     22.174569   15.892382   23.126187 H          1 MOL1         0.0783
     115    O28     24.108441   15.143710   23.307416 O.3        1 MOL1        -0.5519
     116    H55     23.843132   14.350894   23.824829 H          1 MOL1         0.3769
     117    C34     23.337405   16.482641   21.401836 C.3        1 MOL1         0.1018
     118    H56     24.141408   16.068643   20.778134 H          1 MOL1         0.0783
     119    C35     22.108767   16.746859   20.499944 C.3        1 MOL1         0.1043
     120    H57     21.286639   17.109563   21.125931 H          1 MOL1         0.0783
     121    O29     21.732331   15.490515   19.890652 O.3        1 MOL1        -0.3740
     122    C36     22.346154   17.798353   19.391282 C.3        1 MOL1         0.0138
     123    H58     22.204184   18.788886   19.839915 H          1 MOL1         0.0794
     124    H59     21.573392   17.683100   18.620387 H          1 MOL1         0.0794
     125    O30     23.652633   17.707688   18.807409 O.3        1 MOL1        -0.5486
     126    H60     24.305584   17.894880   19.519614 H          1 MOL1         0.3769
     127    C1      19.664966   18.785027   22.706053 C.2        1 MOL1         0.6173
     128    O1      20.067568   19.186272   21.628042 O.co2      1 MOL1        -0.6755
     129    O2      18.488480   18.725355   23.014677 O.co2      1 MOL1        -0.6755
     130    C2      20.687106   18.303523   23.672214 C.2        1 MOL1        -0.1504
     131    H1      21.719709   18.423535   23.364038 H          1 MOL1         0.0814
     132    C3      20.393832   17.740848   24.865915 C.2        1 MOL1        -0.1394
     133    H2      19.359050   17.615748   25.183308 H          1 MOL1         0.0817
     134    C4      21.441378   17.239008   25.837484 C.3        1 MOL1        -0.1849
     135    H3      22.406403   17.106859   25.330946 H          1 MOL1         0.0736
     136    H4      21.147036   16.245165   26.199408 H          1 MOL1         0.0736
     137    C5      21.616715   18.183285   27.046334 C.3        1 MOL1        -0.1866
     138    H5      20.647283   18.336555   27.540031 H          1 MOL1         0.0738
     139    H6      22.274308   17.703238   27.783787 H          1 MOL1         0.0738
     140    C6      22.220596   19.546169   26.647468 C.3        1 MOL1        -0.2879
     141    H7      22.358983   20.182700   27.530573 H          1 MOL1         0.0750
     142    H8      23.197983   19.410251   26.169767 H          1 MOL1         0.0750
     143    H9      21.567414   20.079419   25.944611 H          1 MOL1         0.0750
@<TRIPOS>BOND
    1     1     2    1
    2     1     3    1
    3     1     4    1
    4     4     5    1
    5     4     6    1
    6     6     7    1
    7     4     8    1
    8     8     9    1
    9     8    10    1
   10    10    11    1
   11     8    12    1
   12    12    13    1
   13    12    14    1
   14    14    15    1
   15     1    16    1
   16    14    16    1
   17    14    17    1
   18    17    18    1
   19    17    19    1
   20    17    20    1
   21    20    21    1
   22    22    23    1
   23    22    24    1
   24    22    25    1
   25    25    26    1
   26    25    27    1
   27    27    28    1
   28    25    29    1
   29    29    30    1
   30    29    31    1
   31    31    32    1
   32     3    33    1
   33    29    33    1
   34    33    34    1
   35    33    35    1
   36    35    36    1
   37    22    37    1
   38    35    37    1
   39    35    38    1
   40    38    39    1
   41    38    40    1
   42    38    41    1
   43    41    42    1
   44    43    44    1
   45    43    45    1
   46    43    46    1
   47    46    47    1
   48    46    48    1
   49    48    49    1
   50    46    50    1
   51    50    51    1
   52    50    52    1
   53    52    53    1
   54    24    54    1
   55    50    54    1
   56    54    55    1
   57    54    56    1
   58    56    57    1
   59    43    58    1
   60    56    58    1
   61    56    59    1
   62    59    60    1
   63    59    61    1
   64    59    62    1
   65    62    63    1
   66    64    65    1
   67    64    66    1
   68    64    67    1
   69    67    68    1
   70    67    69    1
   71    69    70    1
   72    67    71    1
   73    71    72    1
   74    71    73    1
   75    73    74    1
   76    45    75    1
   77    71    75    1
   78    75    76    1
   79    75    77    1
   80    77    78    1
   81    64    79    1
   82    77    79    1
   83    77    80    1
   84    80    81    1
   85    80    82    1
   86    80    83    1
   87    83    84    1
   88    85    86    1
   89    85    87    1
   90    85    88    1
   91    88    89    1
   92    88    90    1
   93    90    91    1
   94    88    92    1
   95    92    93    1
   96    92    94    1
   97    94    95    1
   98    66    96    1
   99    92    96    1
  100    96    97    1
  101    96    98    1
  102    98    99    1
  103    85   100    1
  104    98   100    1
  105    98   101    1
  106   101   102    1
  107   101   103    1
  108   101   104    1
  109   104   105    1
  110   106   107    1
  111    12   108    1
  112   106   108    1
  113   106   109    1
  114   109   110    1
  115   109   111    1
  116   111   112    1
  117   109   113    1
  118   113   114    1
  119   113   115    1
  120   115   116    1
  121    87   117    1
  122   113   117    1
  123   117   118    1
  124   117   119    1
  125   119   120    1
  126   106   121    1
  127   119   121    1
  128   119   122    1
  129   122   123    1
  130   122   124    1
  131   122   125    1
  132   125   126    1
  133   127   128    1
  134   127   129    2
  135   127   130    1
  136   130   131    1
  137   130   132    2
  138   132   133    1
  139   132   134    1
  140   134   135    1
  141   134   136    1
  142   134   137    1
  143   137   138    1
  144   137   139    1
  145   137   140    1
  146   140   141    1
  147   140   142    1
  148   140   143    1
@<TRIPOS>SUBSTRUCTURE
       1 MOL1            1 RESIDUE      1      MOL     
       2 MOL1          143 RESIDUE      1      MOL     
@<SCITEGIC>MOL_PROPERTY
feprocess Rank
SciTegic.value.IntegerValue
211

@<SCITEGIC>MOL_PROPERTY
Conf_Id
SciTegic.value.IntegerValue
89

@<SCITEGIC>MOL_PROPERTY
Probability
SciTegic.value.DoubleValue
0.00

@<SCITEGIC>MOL_PROPERTY
G
SciTegic.value.DoubleValue
517.543

@<SCITEGIC>MOL_PROPERTY
E
SciTegic.value.DoubleValue
336.808

@<SCITEGIC>MOL_PROPERTY
-TS
SciTegic.value.DoubleValue
180.735

@<SCITEGIC>MOL_PROPERTY
U+W
SciTegic.value.DoubleValue
210.720

@<SCITEGIC>MOL_PROPERTY
U
SciTegic.value.DoubleValue
272.207

@<SCITEGIC>MOL_PROPERTY
W
SciTegic.value.DoubleValue
-61.487

@<SCITEGIC>MOL_PROPERTY
W(PB)
SciTegic.value.DoubleValue
-67.595

@<SCITEGIC>MOL_PROPERTY
W(SA)
SciTegic.value.DoubleValue
6.108

@<SCITEGIC>MOL_PROPERTY
Valence
SciTegic.value.DoubleValue
151.029

@<SCITEGIC>MOL_PROPERTY
Coulomb
SciTegic.value.DoubleValue
143.037

@<SCITEGIC>MOL_PROPERTY
VdW
SciTegic.value.DoubleValue
-21.858

@<SCITEGIC>MOL_PROPERTY
VdW6
SciTegic.value.DoubleValue
-179.483

@<SCITEGIC>MOL_PROPERTY
VdW12
SciTegic.value.DoubleValue
157.624

@<SCITEGIC>MOL_PROPERTY
Bond
SciTegic.value.DoubleValue
5.360

@<SCITEGIC>MOL_PROPERTY
Angle
SciTegic.value.DoubleValue
19.583

@<SCITEGIC>MOL_PROPERTY
Pdih
SciTegic.value.DoubleValue
126.082

@<SCITEGIC>MOL_PROPERTY
Idih
SciTegic.value.DoubleValue
0.003

@<SCITEGIC>MOL_PROPERTY
Tether
SciTegic.value.DoubleValue
0.000

@<TRIPOS>MOLECULE
CD_guest-s19_fast_vm2_rndm.mol2 : feprocess host+ligand conformer 212
         143         148           2
SMALL
USER_CHARGES
 
@<TRIPOS>ATOM
       1    C1      16.667350   15.225768   22.293440 C.3        1 MOL1         0.2972
       2    H1      15.606447   15.315407   22.550960 H          1 MOL1         0.0751
       3    O1      17.218742   16.516222   21.942560 O.3        1 MOL1        -0.3740
       4    C2      17.432641   14.673777   23.525580 C.3        1 MOL1         0.1003
       5    H2      16.933176   13.740981   23.818515 H          1 MOL1         0.0783
       6    O2      17.361938   15.594487   24.622490 O.3        1 MOL1        -0.5519
       7    H3      17.530666   16.483709   24.242561 H          1 MOL1         0.3769
       8    C3      18.905733   14.329566   23.196837 C.3        1 MOL1         0.1053
       9    H4      19.446689   15.257242   22.970424 H          1 MOL1         0.0783
      10    O3      19.472524   13.674139   24.333828 O.3        1 MOL1        -0.5519
      11    H5      19.229689   14.237685   25.102031 H          1 MOL1         0.3769
      12    C4      18.941859   13.393108   21.965864 C.3        1 MOL1         0.1018
      13    H6      18.383025   12.495346   22.259578 H          1 MOL1         0.0783
      14    C5      18.175056   14.015474   20.762433 C.3        1 MOL1         0.1043
      15    H7      18.646933   14.954482   20.469992 H          1 MOL1         0.0783
      16    O4      16.818543   14.313735   21.174855 O.3        1 MOL1        -0.3740
      17    C6      18.126391   13.103085   19.512710 C.3        1 MOL1         0.0138
      18    H8      19.114003   13.116414   19.032668 H          1 MOL1         0.0794
      19    H9      17.412255   13.525349   18.793405 H          1 MOL1         0.0794
      20    O5      17.763835   11.755416   19.834266 O.3        1 MOL1        -0.5486
      21    H10     18.494333   11.377431   20.371270 H          1 MOL1         0.3769
      22    C7      15.670520   20.067124   20.179425 C.3        1 MOL1         0.2972
      23    H11     15.104746   20.689529   19.474399 H          1 MOL1         0.0751
      24    O6      16.500802   20.885262   21.030755 O.3        1 MOL1        -0.3740
      25    C8      14.681524   19.242678   21.049375 C.3        1 MOL1         0.1003
      26    H12     14.024944   18.711599   20.348057 H          1 MOL1         0.0783
      27    O7      13.873801   20.094738   21.875098 O.3        1 MOL1        -0.5519
      28    H13     14.474331   20.463440   22.577641 H          1 MOL1         0.3769
      29    C9      15.389106   18.172944   21.921173 C.3        1 MOL1         0.1053
      30    H14     15.951576   18.683781   22.710827 H          1 MOL1         0.0783
      31    O8      14.377360   17.346048   22.502991 O.3        1 MOL1        -0.5519
      32    H15     13.725541   17.971925   22.889859 H          1 MOL1         0.3769
      33    C10     16.387298   17.330498   21.078961 C.3        1 MOL1         0.1018
      34    H16     15.815705   16.704503   20.381439 H          1 MOL1         0.0783
      35    C11     17.323218   18.259549   20.263624 C.3        1 MOL1         0.1043
      36    H17     17.932545   18.851213   20.959667 H          1 MOL1         0.0783
      37    O9      16.509374   19.139859   19.458665 O.3        1 MOL1        -0.3740
      38    C12     18.285188   17.500197   19.319827 C.3        1 MOL1         0.0138
      39    H18     19.081411   17.057573   19.930248 H          1 MOL1         0.0794
      40    H19     18.764485   18.220654   18.643134 H          1 MOL1         0.0794
      41    O10     17.620201   16.477514   18.565639 O.3        1 MOL1        -0.5486
      42    H20     17.191316   15.871440   19.205407 H          1 MOL1         0.3769
      43    C13     18.799390   24.314822   20.837569 C.3        1 MOL1         0.2972
      44    H21     19.281313   25.284832   20.659422 H          1 MOL1         0.0751
      45    O11     19.664608   23.402305   21.533767 O.3        1 MOL1        -0.3740
      46    C14     17.514248   24.475629   21.678075 C.3        1 MOL1         0.1003
      47    H22     16.813610   25.093026   21.101601 H          1 MOL1         0.0783
      48    O12     17.820098   25.137209   22.917960 O.3        1 MOL1        -0.5519
      49    H23     18.510820   24.599010   23.377954 H          1 MOL1         0.3769
      50    C15     16.853030   23.091657   21.916424 C.3        1 MOL1         0.1053
      51    H24     17.501054   22.529551   22.601516 H          1 MOL1         0.0783
      52    O13     15.562472   23.272902   22.509457 O.3        1 MOL1        -0.5519
      53    H25     15.389682   22.450429   23.036326 H          1 MOL1         0.3769
      54    C16     16.694479   22.259941   20.608861 C.3        1 MOL1         0.1018
      55    H26     15.806456   22.639293   20.086754 H          1 MOL1         0.0783
      56    C17     17.933211   22.347787   19.658349 C.3        1 MOL1         0.1043
      57    H27     18.722156   21.693360   20.051013 H          1 MOL1         0.0783
      58    O14     18.418198   23.711303   19.589758 O.3        1 MOL1        -0.3740
      59    C18     17.661282   21.937708   18.191921 C.3        1 MOL1         0.0138
      60    H28     17.465601   20.863429   18.130257 H          1 MOL1         0.0794
      61    H29     18.572906   22.121881   17.607510 H          1 MOL1         0.0794
      62    O15     16.566361   22.675907   17.640446 O.3        1 MOL1        -0.5486
      63    H30     16.807242   23.625095   17.723869 H          1 MOL1         0.3769
      64    C19     23.377008   22.669570   22.936957 C.3        1 MOL1         0.2972
      65    H31     24.411209   22.620547   23.300275 H          1 MOL1         0.0751
      66    O16     22.870658   21.346359   22.646756 O.3        1 MOL1        -0.3740
      67    C20     22.445578   23.276830   24.013322 C.3        1 MOL1         0.1003
      68    H32     22.762529   24.312942   24.190243 H          1 MOL1         0.0783
      69    O17     22.532173   22.530134   25.235849 O.3        1 MOL1        -0.5519
      70    H33     22.398785   21.589201   24.989169 H          1 MOL1         0.3769
      71    C21     20.986167   23.290649   23.498480 C.3        1 MOL1         0.1053
      72    H34     20.648315   22.249177   23.409999 H          1 MOL1         0.0783
      73    O18     20.146382   23.978636   24.431199 O.3        1 MOL1        -0.5519
      74    H35     20.359094   23.590261   25.308310 H          1 MOL1         0.3769
      75    C22     20.864076   23.951923   22.102439 C.3        1 MOL1         0.1018
      76    H36     20.800045   25.039736   22.237695 H          1 MOL1         0.0783
      77    C23     22.011802   23.591587   21.114711 C.3        1 MOL1         0.1043
      78    H37     21.789214   22.605364   20.700637 H          1 MOL1         0.0783
      79    O19     23.296576   23.527698   21.779251 O.3        1 MOL1        -0.3740
      80    C24     22.123940   24.557401   19.911744 C.3        1 MOL1         0.0138
      81    H38     21.259284   24.395402   19.253902 H          1 MOL1         0.0794
      82    H39     23.022486   24.296065   19.336857 H          1 MOL1         0.0794
      83    O20     22.175570   25.929583   20.322010 O.3        1 MOL1        -0.5486
      84    H40     22.319443   26.475671   19.518347 H          1 MOL1         0.3769
      85    C25     24.311669   18.099823   20.345979 C.3        1 MOL1         0.2972
      86    H41     24.939145   18.543066   19.562563 H          1 MOL1         0.0751
      87    O21     24.318760   16.662138   20.093854 O.3        1 MOL1        -0.3740
      88    C26     25.010132   18.506385   21.684637 C.3        1 MOL1         0.1003
      89    H42     26.083709   18.324840   21.546471 H          1 MOL1         0.0783
      90    O22     24.584324   17.738979   22.812643 O.3        1 MOL1        -0.5519
      91    H43     24.788453   16.797705   22.596434 H          1 MOL1         0.3769
      92    C27     24.825607   20.017661   22.014101 C.3        1 MOL1         0.1053
      93    H44     24.871208   20.107910   23.108368 H          1 MOL1         0.0783
      94    O23     25.898378   20.789353   21.463294 O.3        1 MOL1        -0.5519
      95    H45     26.715369   20.536664   21.943695 H          1 MOL1         0.3769
      96    C28     23.455602   20.598466   21.557986 C.3        1 MOL1         0.1018
      97    H46     23.594876   21.227507   20.669209 H          1 MOL1         0.0783
      98    C29     22.449138   19.479480   21.210859 C.3        1 MOL1         0.1043
      99    H47     22.298355   18.869368   22.108957 H          1 MOL1         0.0783
     100    O24     23.005103   18.671407   20.155964 O.3        1 MOL1        -0.3740
     101    C30     21.062650   19.971095   20.724023 C.3        1 MOL1         0.0138
     102    H48     20.656876   20.696279   21.440954 H          1 MOL1         0.0794
     103    H49     20.377268   19.114675   20.708617 H          1 MOL1         0.0794
     104    O25     21.135016   20.558083   19.421221 O.3        1 MOL1        -0.5486
     105    H50     21.532293   19.878057   18.835152 H          1 MOL1         0.3769
     106    C31     21.336798   13.816729   21.111815 C.3        1 MOL1         0.2972
     107    H51     21.653504   13.406570   20.144420 H          1 MOL1         0.0751
     108    O26     20.293779   12.948959   21.632228 O.3        1 MOL1        -0.3740
     109    C32     22.572548   13.829336   22.070822 C.3        1 MOL1         0.1003
     110    H52     23.189800   12.964945   21.793537 H          1 MOL1         0.0783
     111    O27     22.215284   13.725201   23.454953 O.3        1 MOL1        -0.5519
     112    H53     21.263261   13.456145   23.494787 H          1 MOL1         0.3769
     113    C33     23.428775   15.117403   21.898421 C.3        1 MOL1         0.1053
     114    H54     23.009360   15.872015   22.573701 H          1 MOL1         0.0783
     115    O28     24.786649   14.837715   22.253449 O.3        1 MOL1        -0.5519
     116    H55     24.743006   14.386533   23.125971 H          1 MOL1         0.3769
     117    C34     23.302504   15.657098   20.453071 C.3        1 MOL1         0.1018
     118    H56     23.533916   14.794395   19.815427 H          1 MOL1         0.0783
     119    C35     21.808167   16.025892   20.166460 C.3        1 MOL1         0.1043
     120    H57     21.572559   17.011618   20.561836 H          1 MOL1         0.0783
     121    O29     20.898196   15.165961   20.895470 O.3        1 MOL1        -0.3740
     122    C36     21.454272   16.000029   18.660372 C.3        1 MOL1         0.0138
     123    H58     20.435400   15.611118   18.531287 H          1 MOL1         0.0794
     124    H59     22.133680   15.322568   18.126644 H          1 MOL1         0.0794
     125    O30     21.530340   17.318075   18.113676 O.3        1 MOL1        -0.5486
     126    H60     22.348669   17.727850   18.477727 H          1 MOL1         0.3769
     127    C1      16.481686   20.920187   24.764851 C.2        1 MOL1         0.6173
     128    O1      16.439898   21.419557   25.872775 O.co2      1 MOL1        -0.6755
     129    O2      15.531038   20.905983   24.003403 O.co2      1 MOL1        -0.6755
     130    C2      17.745482   20.294284   24.288726 C.2        1 MOL1        -0.1504
     131    H1      17.719023   19.872420   23.288631 H          1 MOL1         0.0814
     132    C3      18.878182   20.213737   25.021690 C.2        1 MOL1        -0.1394
     133    H2      18.927015   20.626270   26.028958 H          1 MOL1         0.0817
     134    C4      20.124914   19.512708   24.531609 C.3        1 MOL1        -0.1849
     135    H3      21.009958   19.911791   25.042976 H          1 MOL1         0.0736
     136    H4      20.262084   19.702737   23.461888 H          1 MOL1         0.0736
     137    C5      20.020328   17.995579   24.780708 C.3        1 MOL1        -0.1866
     138    H5      19.963572   17.806147   25.861400 H          1 MOL1         0.0738
     139    H6      19.089689   17.619849   24.340589 H          1 MOL1         0.0738
     140    C6      21.206220   17.219594   24.181126 C.3        1 MOL1        -0.2879
     141    H7      21.179457   16.169429   24.498092 H          1 MOL1         0.0750
     142    H8      21.164817   17.238494   23.086339 H          1 MOL1         0.0750
     143    H9      22.165543   17.644546   24.504380 H          1 MOL1         0.0750
@<TRIPOS>BOND
    1     1     2    1
    2     1     3    1
    3     1     4    1
    4     4     5    1
    5     4     6    1
    6     6     7    1
    7     4     8    1
    8     8     9    1
    9     8    10    1
   10    10    11    1
   11     8    12    1
   12    12    13    1
   13    12    14    1
   14    14    15    1
   15     1    16    1
   16    14    16    1
   17    14    17    1
   18    17    18    1
   19    17    19    1
   20    17    20    1
   21    20    21    1
   22    22    23    1
   23    22    24    1
   24    22    25    1
   25    25    26    1
   26    25    27    1
   27    27    28    1
   28    25    29    1
   29    29    30    1
   30    29    31    1
   31    31    32    1
   32     3    33    1
   33    29    33    1
   34    33    34    1
   35    33    35    1
   36    35    36    1
   37    22    37    1
   38    35    37    1
   39    35    38    1
   40    38    39    1
   41    38    40    1
   42    38    41    1
   43    41    42    1
   44    43    44    1
   45    43    45    1
   46    43    46    1
   47    46    47    1
   48    46    48    1
   49    48    49    1
   50    46    50    1
   51    50    51    1
   52    50    52    1
   53    52    53    1
   54    24    54    1
   55    50    54    1
   56    54    55    1
   57    54    56    1
   58    56    57    1
   59    43    58    1
   60    56    58    1
   61    56    59    1
   62    59    60    1
   63    59    61    1
   64    59    62    1
   65    62    63    1
   66    64    65    1
   67    64    66    1
   68    64    67    1
   69    67    68    1
   70    67    69    1
   71    69    70    1
   72    67    71    1
   73    71    72    1
   74    71    73    1
   75    73    74    1
   76    45    75    1
   77    71    75    1
   78    75    76    1
   79    75    77    1
   80    77    78    1
   81    64    79    1
   82    77    79    1
   83    77    80    1
   84    80    81    1
   85    80    82    1
   86    80    83    1
   87    83    84    1
   88    85    86    1
   89    85    87    1
   90    85    88    1
   91    88    89    1
   92    88    90    1
   93    90    91    1
   94    88    92    1
   95    92    93    1
   96    92    94    1
   97    94    95    1
   98    66    96    1
   99    92    96    1
  100    96    97    1
  101    96    98    1
  102    98    99    1
  103    85   100    1
  104    98   100    1
  105    98   101    1
  106   101   102    1
  107   101   103    1
  108   101   104    1
  109   104   105    1
  110   106   107    1
  111    12   108    1
  112   106   108    1
  113   106   109    1
  114   109   110    1
  115   109   111    1
  116   111   112    1
  117   109   113    1
  118   113   114    1
  119   113   115    1
  120   115   116    1
  121    87   117    1
  122   113   117    1
  123   117   118    1
  124   117   119    1
  125   119   120    1
  126   106   121    1
  127   119   121    1
  128   119   122    1
  129   122   123    1
  130   122   124    1
  131   122   125    1
  132   125   126    1
  133   127   128    1
  134   127   129    2
  135   127   130    1
  136   130   131    1
  137   130   132    2
  138   132   133    1
  139   132   134    1
  140   134   135    1
  141   134   136    1
  142   134   137    1
  143   137   138    1
  144   137   139    1
  145   137   140    1
  146   140   141    1
  147   140   142    1
  148   140   143    1
@<TRIPOS>SUBSTRUCTURE
       1 MOL1            1 RESIDUE      1      MOL     
       2 MOL1          143 RESIDUE      1      MOL     
@<SCITEGIC>MOL_PROPERTY
feprocess Rank
SciTegic.value.IntegerValue
212

@<SCITEGIC>MOL_PROPERTY
Conf_Id
SciTegic.value.IntegerValue
814

@<SCITEGIC>MOL_PROPERTY
Probability
SciTegic.value.DoubleValue
0.00

@<SCITEGIC>MOL_PROPERTY
G
SciTegic.value.DoubleValue
522.697

@<SCITEGIC>MOL_PROPERTY
E
SciTegic.value.DoubleValue
340.192

@<SCITEGIC>MOL_PROPERTY
-TS
SciTegic.value.DoubleValue
182.505

@<SCITEGIC>MOL_PROPERTY
U+W
SciTegic.value.DoubleValue
214.103

@<SCITEGIC>MOL_PROPERTY
U
SciTegic.value.DoubleValue
299.599

@<SCITEGIC>MOL_PROPERTY
W
SciTegic.value.DoubleValue
-85.496

@<SCITEGIC>MOL_PROPERTY
W(PB)
SciTegic.value.DoubleValue
-91.394

@<SCITEGIC>MOL_PROPERTY
W(SA)
SciTegic.value.DoubleValue
5.898

@<SCITEGIC>MOL_PROPERTY
Valence
SciTegic.value.DoubleValue
164.699

@<SCITEGIC>MOL_PROPERTY
Coulomb
SciTegic.value.DoubleValue
156.972

@<SCITEGIC>MOL_PROPERTY
VdW
SciTegic.value.DoubleValue
-22.071

@<SCITEGIC>MOL_PROPERTY
VdW6
SciTegic.value.DoubleValue
-185.997

@<SCITEGIC>MOL_PROPERTY
VdW12
SciTegic.value.DoubleValue
163.926

@<SCITEGIC>MOL_PROPERTY
Bond
SciTegic.value.DoubleValue
6.311

@<SCITEGIC>MOL_PROPERTY
Angle
SciTegic.value.DoubleValue
32.361

@<SCITEGIC>MOL_PROPERTY
Pdih
SciTegic.value.DoubleValue
126.023

@<SCITEGIC>MOL_PROPERTY
Idih
SciTegic.value.DoubleValue
0.004

@<SCITEGIC>MOL_PROPERTY
Tether
SciTegic.value.DoubleValue
0.000

@<TRIPOS>MOLECULE
CD_guest-s19_fast_vm2_rndm.mol2 : feprocess host+ligand conformer 213
         143         148           2
SMALL
USER_CHARGES
 
@<TRIPOS>ATOM
       1    C1      15.975305   15.197224   21.211572 C.3        1 MOL1         0.2972
       2    H1      14.914102   15.003381   21.008921 H          1 MOL1         0.0751
       3    O1      16.141012   16.296670   22.125036 O.3        1 MOL1        -0.3740
       4    C2      16.631011   13.954591   21.867957 C.3        1 MOL1         0.1003
       5    H2      16.493548   13.105520   21.185868 H          1 MOL1         0.0783
       6    O2      16.000663   13.667725   23.125248 O.3        1 MOL1        -0.5519
       7    H3      15.944399   14.527792   23.601772 H          1 MOL1         0.3769
       8    C3      18.150518   14.167465   22.076462 C.3        1 MOL1         0.1053
       9    H4      18.286648   14.946199   22.838784 H          1 MOL1         0.0783
      10    O3      18.752117   12.945517   22.518567 O.3        1 MOL1        -0.5519
      11    H5      18.175432   12.620568   23.244566 H          1 MOL1         0.3769
      12    C4      18.832638   14.649056   20.775340 C.3        1 MOL1         0.1018
      13    H6      18.840466   13.817446   20.058519 H          1 MOL1         0.0783
      14    C5      18.086170   15.861615   20.157925 C.3        1 MOL1         0.1043
      15    H7      18.166509   16.707389   20.852008 H          1 MOL1         0.0783
      16    O4      16.694273   15.499872   19.994198 O.3        1 MOL1        -0.3740
      17    C6      18.629721   16.346528   18.790036 C.3        1 MOL1         0.0138
      18    H8      19.438171   17.065440   18.974392 H          1 MOL1         0.0794
      19    H9      17.831552   16.893525   18.270702 H          1 MOL1         0.0794
      20    O5      19.112872   15.282019   17.963412 O.3        1 MOL1        -0.5486
      21    H10     20.053033   15.137511   18.218038 H          1 MOL1         0.3769
      22    C7      14.893399   20.238322   22.213067 C.3        1 MOL1         0.2972
      23    H11     14.328478   21.173323   22.290686 H          1 MOL1         0.0751
      24    O6      16.284128   20.489947   21.910719 O.3        1 MOL1        -0.3740
      25    C8      14.795551   19.478170   23.554603 C.3        1 MOL1         0.1003
      26    H12     13.731472   19.294973   23.753181 H          1 MOL1         0.0783
      27    O7      15.351565   20.263961   24.619399 O.3        1 MOL1        -0.5519
      28    H13     16.236440   20.555639   24.307485 H          1 MOL1         0.3769
      29    C9      15.510521   18.113280   23.476097 C.3        1 MOL1         0.1053
      30    H14     16.589821   18.305643   23.396722 H          1 MOL1         0.0783
      31    O8      15.236147   17.381243   24.675879 O.3        1 MOL1        -0.5519
      32    H15     15.436336   18.001831   25.409491 H          1 MOL1         0.3769
      33    C10     15.083201   17.276213   22.242204 C.3        1 MOL1         0.1018
      34    H16     14.124435   16.792069   22.467532 H          1 MOL1         0.0783
      35    C11     14.961179   18.126735   20.933737 C.3        1 MOL1         0.1043
      36    H17     15.972888   18.303485   20.560079 H          1 MOL1         0.0783
      37    O9      14.321614   19.401749   21.190537 O.3        1 MOL1        -0.3740
      38    C12     14.136722   17.472334   19.793207 C.3        1 MOL1         0.0138
      39    H18     14.745695   16.724312   19.274770 H          1 MOL1         0.0794
      40    H19     13.901080   18.245976   19.049976 H          1 MOL1         0.0794
      41    O10     12.927469   16.871458   20.272016 O.3        1 MOL1        -0.5486
      42    H20     12.418359   16.562266   19.491029 H          1 MOL1         0.3769
      43    C13     18.572028   23.421972   19.998072 C.3        1 MOL1         0.2972
      44    H21     19.013410   24.134486   19.289866 H          1 MOL1         0.0751
      45    O11     19.342263   23.353276   21.213376 O.3        1 MOL1        -0.3740
      46    C14     17.144973   23.876586   20.384209 C.3        1 MOL1         0.1003
      47    H22     16.552945   23.921688   19.460683 H          1 MOL1         0.0783
      48    O12     17.185942   25.178168   20.988619 O.3        1 MOL1        -0.5519
      49    H23     17.917060   25.145205   21.647082 H          1 MOL1         0.3769
      50    C15     16.463697   22.868048   21.344223 C.3        1 MOL1         0.1053
      51    H24     16.983216   22.912645   22.311345 H          1 MOL1         0.0783
      52    O13     15.101331   23.274973   21.502972 O.3        1 MOL1        -0.5519
      53    H25     15.139595   24.243403   21.668444 H          1 MOL1         0.3769
      54    C16     16.555437   21.404745   20.819783 C.3        1 MOL1         0.1018
      55    H26     15.838439   21.272480   19.999992 H          1 MOL1         0.0783
      56    C17     17.985982   21.071169   20.311577 C.3        1 MOL1         0.1043
      57    H27     18.644545   21.016050   21.188264 H          1 MOL1         0.0783
      58    O14     18.458915   22.107005   19.416445 O.3        1 MOL1        -0.3740
      59    C18     18.102346   19.718874   19.572776 C.3        1 MOL1         0.0138
      60    H28     18.007100   18.917882   20.315457 H          1 MOL1         0.0794
      61    H29     19.114584   19.637645   19.154794 H          1 MOL1         0.0794
      62    O15     17.125286   19.563249   18.534635 O.3        1 MOL1        -0.5486
      63    H30     16.240798   19.694459   18.930954 H          1 MOL1         0.3769
      64    C19     23.392892   22.650796   21.827466 C.3        1 MOL1         0.2972
      65    H31     23.532736   23.467166   21.108477 H          1 MOL1         0.0751
      66    O16     24.725331   22.187370   22.183780 O.3        1 MOL1        -0.3740
      67    C20     22.623105   23.224804   23.044002 C.3        1 MOL1         0.1003
      68    H32     23.160376   24.126560   23.363914 H          1 MOL1         0.0783
      69    O17     22.544165   22.311526   24.146674 O.3        1 MOL1        -0.5519
      70    H33     22.010257   21.530790   23.831410 H          1 MOL1         0.3769
      71    C21     21.167731   23.613027   22.664460 C.3        1 MOL1         0.1053
      72    H34     20.501835   22.934752   23.218103 H          1 MOL1         0.0783
      73    O18     20.903243   24.954859   23.093257 O.3        1 MOL1        -0.5519
      74    H35     20.977913   24.951146   24.071510 H          1 MOL1         0.3769
      75    C22     20.789640   23.442876   21.164824 C.3        1 MOL1         0.1018
      76    H36     21.098719   24.344623   20.620167 H          1 MOL1         0.0783
      77    C23     21.428830   22.178658   20.484264 C.3        1 MOL1         0.1043
      78    H37     20.680996   21.383603   20.436517 H          1 MOL1         0.0783
      79    O19     22.553757   21.659720   21.231604 O.3        1 MOL1        -0.3740
      80    C24     21.951333   22.426143   19.045250 C.3        1 MOL1         0.0138
      81    H38     22.382396   21.487048   18.672657 H          1 MOL1         0.0794
      82    H39     22.759691   23.167778   19.070479 H          1 MOL1         0.0794
      83    O20     20.927235   22.868668   18.153965 O.3        1 MOL1        -0.5486
      84    H40     20.144920   22.281471   18.282184 H          1 MOL1         0.3769
      85    C25     25.015629   17.880145   21.948326 C.3        1 MOL1         0.2972
      86    H41     25.537932   16.914772   21.952321 H          1 MOL1         0.0751
      87    O21     23.621343   17.711985   21.648074 O.3        1 MOL1        -0.3740
      88    C26     25.134278   18.533050   23.348930 C.3        1 MOL1         0.1003
      89    H42     26.207238   18.588939   23.574255 H          1 MOL1         0.0783
      90    O22     24.497468   17.720353   24.349608 O.3        1 MOL1        -0.5519
      91    H43     24.219411   16.884298   23.902713 H          1 MOL1         0.3769
      92    C27     24.574927   19.978386   23.380223 C.3        1 MOL1         0.1053
      93    H44     23.480336   19.943618   23.288622 H          1 MOL1         0.0783
      94    O23     24.977948   20.554412   24.627476 O.3        1 MOL1        -0.5519
      95    H45     24.587811   19.971340   25.313550 H          1 MOL1         0.3769
      96    C28     25.162117   20.792066   22.199572 C.3        1 MOL1         0.1018
      97    H46     26.243618   20.816822   22.383120 H          1 MOL1         0.0783
      98    C29     24.976842   20.057623   20.838196 C.3        1 MOL1         0.1043
      99    H47     23.912868   19.913021   20.627770 H          1 MOL1         0.0783
     100    O24     25.589471   18.749747   20.943737 O.3        1 MOL1        -0.3740
     101    C30     25.600141   20.801747   19.632412 C.3        1 MOL1         0.0138
     102    H48     24.957588   21.655747   19.381322 H          1 MOL1         0.0794
     103    H49     25.599036   20.129812   18.763843 H          1 MOL1         0.0794
     104    O25     26.929490   21.262244   19.901199 O.3        1 MOL1        -0.5486
     105    H50     26.863833   21.936275   20.612728 H          1 MOL1         0.3769
     106    C31     21.239100   14.479289   20.394921 C.3        1 MOL1         0.2972
     107    H51     20.925409   13.564739   19.875786 H          1 MOL1         0.0751
     108    O26     20.158524   15.057253   21.149738 O.3        1 MOL1        -0.3740
     109    C32     22.364976   14.144939   21.406653 C.3        1 MOL1         0.1003
     110    H52     23.190572   13.689287   20.844727 H          1 MOL1         0.0783
     111    O27     21.892525   13.212484   22.392450 O.3        1 MOL1        -0.5519
     112    H53     20.929972   13.398157   22.523597 H          1 MOL1         0.3769
     113    C33     22.900311   15.428166   22.086566 C.3        1 MOL1         0.1053
     114    H54     22.097346   15.859795   22.698608 H          1 MOL1         0.0783
     115    O28     24.019387   15.089795   22.913028 O.3        1 MOL1        -0.5519
     116    H55     23.737777   14.279873   23.395565 H          1 MOL1         0.3769
     117    C34     23.291912   16.468142   21.008602 C.3        1 MOL1         0.1018
     118    H56     24.138242   16.082957   20.424156 H          1 MOL1         0.0783
     119    C35     22.108044   16.731533   20.047581 C.3        1 MOL1         0.1043
     120    H57     21.271404   17.126835   20.633406 H          1 MOL1         0.0783
     121    O29     21.716944   15.468418   19.450983 O.3        1 MOL1        -0.3740
     122    C36     22.415508   17.771671   18.940469 C.3        1 MOL1         0.0138
     123    H58     22.232509   18.771573   19.358637 H          1 MOL1         0.0794
     124    H59     21.705178   17.633625   18.115008 H          1 MOL1         0.0794
     125    O30     23.763859   17.692344   18.458802 O.3        1 MOL1        -0.5486
     126    H60     24.351417   17.934293   19.210507 H          1 MOL1         0.3769
     127    C1      20.346258   19.295702   22.692369 C.2        1 MOL1         0.6173
     128    O1      20.441407   19.198150   21.483543 O.co2      1 MOL1        -0.6755
     129    O2      20.746707   20.255060   23.330338 O.co2      1 MOL1        -0.6755
     130    C2      19.631761   18.190780   23.386004 C.2        1 MOL1        -0.1504
     131    H1      19.305847   17.371613   22.751856 H          1 MOL1         0.0814
     132    C3      19.379885   18.160333   24.713555 C.2        1 MOL1        -0.1394
     133    H2      19.704007   18.973180   25.362480 H          1 MOL1         0.0817
     134    C4      18.644070   17.024431   25.394146 C.3        1 MOL1        -0.1849
     135    H3      18.070395   16.445854   24.658410 H          1 MOL1         0.0736
     136    H4      17.906958   17.440309   26.093140 H          1 MOL1         0.0736
     137    C5      19.591534   16.080841   26.167452 C.3        1 MOL1        -0.1866
     138    H5      20.111134   16.644971   26.953981 H          1 MOL1         0.0738
     139    H6      18.993381   15.311543   26.674384 H          1 MOL1         0.0738
     140    C6      20.630649   15.394291   25.255460 C.3        1 MOL1        -0.2879
     141    H7      21.318408   16.133829   24.826670 H          1 MOL1         0.0750
     142    H8      21.229150   14.671812   25.824592 H          1 MOL1         0.0750
     143    H9      20.142574   14.858140   24.432238 H          1 MOL1         0.0750
@<TRIPOS>BOND
    1     1     2    1
    2     1     3    1
    3     1     4    1
    4     4     5    1
    5     4     6    1
    6     6     7    1
    7     4     8    1
    8     8     9    1
    9     8    10    1
   10    10    11    1
   11     8    12    1
   12    12    13    1
   13    12    14    1
   14    14    15    1
   15     1    16    1
   16    14    16    1
   17    14    17    1
   18    17    18    1
   19    17    19    1
   20    17    20    1
   21    20    21    1
   22    22    23    1
   23    22    24    1
   24    22    25    1
   25    25    26    1
   26    25    27    1
   27    27    28    1
   28    25    29    1
   29    29    30    1
   30    29    31    1
   31    31    32    1
   32     3    33    1
   33    29    33    1
   34    33    34    1
   35    33    35    1
   36    35    36    1
   37    22    37    1
   38    35    37    1
   39    35    38    1
   40    38    39    1
   41    38    40    1
   42    38    41    1
   43    41    42    1
   44    43    44    1
   45    43    45    1
   46    43    46    1
   47    46    47    1
   48    46    48    1
   49    48    49    1
   50    46    50    1
   51    50    51    1
   52    50    52    1
   53    52    53    1
   54    24    54    1
   55    50    54    1
   56    54    55    1
   57    54    56    1
   58    56    57    1
   59    43    58    1
   60    56    58    1
   61    56    59    1
   62    59    60    1
   63    59    61    1
   64    59    62    1
   65    62    63    1
   66    64    65    1
   67    64    66    1
   68    64    67    1
   69    67    68    1
   70    67    69    1
   71    69    70    1
   72    67    71    1
   73    71    72    1
   74    71    73    1
   75    73    74    1
   76    45    75    1
   77    71    75    1
   78    75    76    1
   79    75    77    1
   80    77    78    1
   81    64    79    1
   82    77    79    1
   83    77    80    1
   84    80    81    1
   85    80    82    1
   86    80    83    1
   87    83    84    1
   88    85    86    1
   89    85    87    1
   90    85    88    1
   91    88    89    1
   92    88    90    1
   93    90    91    1
   94    88    92    1
   95    92    93    1
   96    92    94    1
   97    94    95    1
   98    66    96    1
   99    92    96    1
  100    96    97    1
  101    96    98    1
  102    98    99    1
  103    85   100    1
  104    98   100    1
  105    98   101    1
  106   101   102    1
  107   101   103    1
  108   101   104    1
  109   104   105    1
  110   106   107    1
  111    12   108    1
  112   106   108    1
  113   106   109    1
  114   109   110    1
  115   109   111    1
  116   111   112    1
  117   109   113    1
  118   113   114    1
  119   113   115    1
  120   115   116    1
  121    87   117    1
  122   113   117    1
  123   117   118    1
  124   117   119    1
  125   119   120    1
  126   106   121    1
  127   119   121    1
  128   119   122    1
  129   122   123    1
  130   122   124    1
  131   122   125    1
  132   125   126    1
  133   127   128    1
  134   127   129    2
  135   127   130    1
  136   130   131    1
  137   130   132    2
  138   132   133    1
  139   132   134    1
  140   134   135    1
  141   134   136    1
  142   134   137    1
  143   137   138    1
  144   137   139    1
  145   137   140    1
  146   140   141    1
  147   140   142    1
  148   140   143    1
@<TRIPOS>SUBSTRUCTURE
       1 MOL1            1 RESIDUE      1      MOL     
       2 MOL1          143 RESIDUE      1      MOL     
@<SCITEGIC>MOL_PROPERTY
feprocess Rank
SciTegic.value.IntegerValue
213

@<SCITEGIC>MOL_PROPERTY
Conf_Id
SciTegic.value.IntegerValue
212

@<SCITEGIC>MOL_PROPERTY
Probability
SciTegic.value.DoubleValue
0.00

@<SCITEGIC>MOL_PROPERTY
G
SciTegic.value.DoubleValue
525.115

@<SCITEGIC>MOL_PROPERTY
E
SciTegic.value.DoubleValue
343.799

@<SCITEGIC>MOL_PROPERTY
-TS
SciTegic.value.DoubleValue
181.316

@<SCITEGIC>MOL_PROPERTY
U+W
SciTegic.value.DoubleValue
217.711

@<SCITEGIC>MOL_PROPERTY
U
SciTegic.value.DoubleValue
283.227

@<SCITEGIC>MOL_PROPERTY
W
SciTegic.value.DoubleValue
-65.517

@<SCITEGIC>MOL_PROPERTY
W(PB)
SciTegic.value.DoubleValue
-71.504

@<SCITEGIC>MOL_PROPERTY
W(SA)
SciTegic.value.DoubleValue
5.987

@<SCITEGIC>MOL_PROPERTY
Valence
SciTegic.value.DoubleValue
153.335

@<SCITEGIC>MOL_PROPERTY
Coulomb
SciTegic.value.DoubleValue
154.958

@<SCITEGIC>MOL_PROPERTY
VdW
SciTegic.value.DoubleValue
-25.065

@<SCITEGIC>MOL_PROPERTY
VdW6
SciTegic.value.DoubleValue
-182.811

@<SCITEGIC>MOL_PROPERTY
VdW12
SciTegic.value.DoubleValue
157.746

@<SCITEGIC>MOL_PROPERTY
Bond
SciTegic.value.DoubleValue
5.359

@<SCITEGIC>MOL_PROPERTY
Angle
SciTegic.value.DoubleValue
24.004

@<SCITEGIC>MOL_PROPERTY
Pdih
SciTegic.value.DoubleValue
123.965

@<SCITEGIC>MOL_PROPERTY
Idih
SciTegic.value.DoubleValue
0.007

@<SCITEGIC>MOL_PROPERTY
Tether
SciTegic.value.DoubleValue
0.000

@<TRIPOS>MOLECULE
CD_guest-s19_fast_vm2_rndm.mol2 : feprocess host+ligand conformer 214
         143         148           2
SMALL
USER_CHARGES
 
@<TRIPOS>ATOM
       1    C1      16.212069   15.195294   20.788794 C.3        1 MOL1         0.2972
       2    H1      15.195414   14.953614   20.453785 H          1 MOL1         0.0751
       3    O1      16.343207   16.582863   21.149174 O.3        1 MOL1        -0.3740
       4    C2      16.575402   14.378278   22.055878 C.3        1 MOL1         0.1003
       5    H2      16.508601   13.314076   21.795128 H          1 MOL1         0.0783
       6    O2      15.655948   14.664186   23.122664 O.3        1 MOL1        -0.5519
       7    H3      15.412157   15.621069   23.048817 H          1 MOL1         0.3769
       8    C3      18.030195   14.673005   22.503756 C.3        1 MOL1         0.1053
       9    H4      18.083052   15.718212   22.834309 H          1 MOL1         0.0783
      10    O3      18.380000   13.808065   23.588976 O.3        1 MOL1        -0.5519
      11    H5      17.592731   13.812503   24.179094 H          1 MOL1         0.3769
      12    C4      19.013302   14.489469   21.319280 C.3        1 MOL1         0.1018
      13    H6      19.086550   13.421218   21.076374 H          1 MOL1         0.0783
      14    C5      18.544958   15.263087   20.060196 C.3        1 MOL1         0.1043
      15    H7      18.583405   16.336311   20.280211 H          1 MOL1         0.0783
      16    O4      17.179950   14.886462   19.758868 O.3        1 MOL1        -0.3740
      17    C6      19.431148   15.031957   18.808811 C.3        1 MOL1         0.0138
      18    H8      20.256880   15.754811   18.835228 H          1 MOL1         0.0794
      19    H9      18.839285   15.256390   17.911589 H          1 MOL1         0.0794
      20    O5      19.963768   13.703290   18.731827 O.3        1 MOL1        -0.5486
      21    H10     20.601798   13.602013   19.473865 H          1 MOL1         0.3769
      22    C7      14.740873   20.366835   20.656968 C.3        1 MOL1         0.2972
      23    H11     14.129742   21.242474   20.406715 H          1 MOL1         0.0751
      24    O6      16.050612   20.746808   21.126160 O.3        1 MOL1        -0.3740
      25    C8      14.045728   19.493945   21.734000 C.3        1 MOL1         0.1003
      26    H12     13.103405   19.132475   21.302215 H          1 MOL1         0.0783
      27    O7      13.751772   20.250920   22.917328 O.3        1 MOL1        -0.5519
      28    H13     14.602129   20.647409   23.236754 H          1 MOL1         0.3769
      29    C9      14.919066   18.260061   22.064118 C.3        1 MOL1         0.1053
      30    H14     15.853092   18.617635   22.516310 H          1 MOL1         0.0783
      31    O8      14.232502   17.402207   22.982472 O.3        1 MOL1        -0.5519
      32    H15     13.932445   17.990016   23.711039 H          1 MOL1         0.3769
      33    C10     15.274521   17.471797   20.778942 C.3        1 MOL1         0.1018
      34    H16     14.381347   16.928128   20.444647 H          1 MOL1         0.0783
      35    C11     15.792241   18.395857   19.639728 C.3        1 MOL1         0.1043
      36    H17     16.798303   18.743986   19.910023 H          1 MOL1         0.0783
      37    O9      14.916258   19.542202   19.486799 O.3        1 MOL1        -0.3740
      38    C12     15.897784   17.687077   18.268408 C.3        1 MOL1         0.0138
      39    H18     16.732491   16.975904   18.305576 H          1 MOL1         0.0794
      40    H19     16.144872   18.436941   17.505155 H          1 MOL1         0.0794
      41    O10     14.688326   17.001264   17.919148 O.3        1 MOL1        -0.5486
      42    H20     14.823346   16.590498   17.037727 H          1 MOL1         0.3769
      43    C13     18.496372   23.906011   22.139255 C.3        1 MOL1         0.2972
      44    H21     18.947037   24.868960   22.412531 H          1 MOL1         0.0751
      45    O11     19.498952   22.909662   21.859151 O.3        1 MOL1        -0.3740
      46    C14     17.613756   23.392934   23.300028 C.3        1 MOL1         0.1003
      47    H22     16.805361   24.119493   23.452327 H          1 MOL1         0.0783
      48    O12     18.392480   23.296919   24.501962 O.3        1 MOL1        -0.5519
      49    H23     19.335080   23.189315   24.228497 H          1 MOL1         0.3769
      50    C15     16.970540   22.034903   22.930296 C.3        1 MOL1         0.1053
      51    H24     17.771785   21.295076   22.834234 H          1 MOL1         0.0783
      52    O13     16.057781   21.632275   23.956424 O.3        1 MOL1        -0.5519
      53    H25     16.619186   21.396047   24.743464 H          1 MOL1         0.3769
      54    C16     16.233404   22.107684   21.567891 C.3        1 MOL1         0.1018
      55    H26     15.278781   22.628919   21.714164 H          1 MOL1         0.0783
      56    C17     17.075960   22.815324   20.467199 C.3        1 MOL1         0.1043
      57    H27     17.878291   22.124875   20.177999 H          1 MOL1         0.0783
      58    O14     17.666856   24.042641   20.967519 O.3        1 MOL1        -0.3740
      59    C18     16.277508   23.147757   19.183285 C.3        1 MOL1         0.0138
      60    H28     15.961839   22.208705   18.708648 H          1 MOL1         0.0794
      61    H29     16.951155   23.653331   18.478586 H          1 MOL1         0.0794
      62    O15     15.136842   23.976223   19.444299 O.3        1 MOL1        -0.5486
      63    H30     14.485264   23.453602   19.954515 H          1 MOL1         0.3769
      64    C19     23.627891   22.670629   21.186103 C.3        1 MOL1         0.2972
      65    H31     24.663688   22.932888   20.935621 H          1 MOL1         0.0751
      66    O16     23.473378   21.254731   21.405291 O.3        1 MOL1        -0.3740
      67    C20     23.194083   23.396877   22.485495 C.3        1 MOL1         0.1003
      68    H32     23.300573   24.475264   22.309902 H          1 MOL1         0.0783
      69    O17     24.033136   23.014962   23.587506 O.3        1 MOL1        -0.5519
      70    H33     24.289231   22.068685   23.447410 H          1 MOL1         0.3769
      71    C21     21.706922   23.113814   22.811018 C.3        1 MOL1         0.1053
      72    H34     21.602689   22.049317   23.063353 H          1 MOL1         0.0783
      73    O18     21.302734   23.919819   23.921650 O.3        1 MOL1        -0.5519
      74    H35     22.030466   23.832352   24.577252 H          1 MOL1         0.3769
      75    C22     20.816606   23.412312   21.580408 C.3        1 MOL1         0.1018
      76    H36     20.812199   24.495192   21.398028 H          1 MOL1         0.0783
      77    C23     21.343715   22.692349   20.311967 C.3        1 MOL1         0.1043
      78    H37     21.273591   21.610524   20.474757 H          1 MOL1         0.0783
      79    O19     22.732149   23.059053   20.117524 O.3        1 MOL1        -0.3740
      80    C24     20.550560   23.005125   19.016755 C.3        1 MOL1         0.0138
      81    H38     19.725346   22.286356   18.935593 H          1 MOL1         0.0794
      82    H39     21.206104   22.833096   18.152805 H          1 MOL1         0.0794
      83    O20     20.028551   24.339281   18.981671 O.3        1 MOL1        -0.5486
      84    H40     19.284006   24.378135   19.626331 H          1 MOL1         0.3769
      85    C25     25.141600   17.522404   20.842496 C.3        1 MOL1         0.2972
      86    H41     25.756915   16.646529   20.603032 H          1 MOL1         0.0751
      87    O21     23.785424   17.147594   21.159761 O.3        1 MOL1        -0.3740
      88    C26     25.755793   18.337700   22.009314 C.3        1 MOL1         0.1003
      89    H42     26.729162   18.710877   21.665014 H          1 MOL1         0.0783
      90    O22     25.960737   17.530546   23.177591 O.3        1 MOL1        -0.5519
      91    H43     25.067097   17.234516   23.485618 H          1 MOL1         0.3769
      92    C27     24.865279   19.561481   22.329624 C.3        1 MOL1         0.1053
      93    H44     23.902403   19.193205   22.711380 H          1 MOL1         0.0783
      94    O23     25.500683   20.371461   23.324090 O.3        1 MOL1        -0.5519
      95    H45     25.826804   19.738996   24.002471 H          1 MOL1         0.3769
      96    C28     24.591176   20.411775   21.061768 C.3        1 MOL1         0.1018
      97    H46     25.492608   20.994039   20.828488 H          1 MOL1         0.0783
      98    C29     24.191926   19.550928   19.820423 C.3        1 MOL1         0.1043
      99    H47     23.175759   19.169757   19.992048 H          1 MOL1         0.0783
     100    O24     25.088663   18.408967   19.706771 O.3        1 MOL1        -0.3740
     101    C30     24.197546   20.329571   18.462517 C.3        1 MOL1         0.0138
     102    H48     23.280238   20.749288   18.892381 H          1 MOL1         0.0794
     103    H49     25.281186   20.277457   18.627433 H          1 MOL1         0.0794
     104    O25     24.553293   21.707723   18.297985 O.3        1 MOL1        -0.5486
     105    H50     23.839397   22.265169   18.690389 H          1 MOL1         0.3769
     106    C31     21.233307   14.109333   22.250061 C.3        1 MOL1         0.2972
     107    H51     20.744367   13.184683   22.583267 H          1 MOL1         0.0751
     108    O26     20.289089   15.038084   21.688168 O.3        1 MOL1        -0.3740
     109    C32     21.937467   14.797834   23.442035 C.3        1 MOL1         0.1003
     110    H52     22.704366   14.105914   23.813777 H          1 MOL1         0.0783
     111    O27     21.002423   15.078037   24.496653 O.3        1 MOL1        -0.5519
     112    H53     20.111187   14.802842   24.170960 H          1 MOL1         0.3769
     113    C33     22.641361   16.096680   22.985289 C.3        1 MOL1         0.1053
     114    H54     21.870772   16.819998   22.691601 H          1 MOL1         0.0783
     115    O28     23.394621   16.620392   24.082275 O.3        1 MOL1        -0.5519
     116    H55     22.770760   16.593481   24.842784 H          1 MOL1         0.3769
     117    C34     23.560608   15.855837   21.759124 C.3        1 MOL1         0.1018
     118    H56     24.492369   15.388710   22.102424 H          1 MOL1         0.0783
     119    C35     22.887263   14.978473   20.663135 C.3        1 MOL1         0.1043
     120    H57     22.135454   15.599167   20.159499 H          1 MOL1         0.0783
     121    O29     22.228819   13.825166   21.246128 O.3        1 MOL1        -0.3740
     122    C36     23.867494   14.480533   19.573329 C.3        1 MOL1         0.0138
     123    H58     24.247197   15.347391   19.015726 H          1 MOL1         0.0794
     124    H59     23.306563   13.861162   18.860784 H          1 MOL1         0.0794
     125    O30     24.959621   13.727272   20.117469 O.3        1 MOL1        -0.5486
     126    H60     25.517714   14.329809   20.650328 H          1 MOL1         0.3769
     127    C1      17.163968   19.080816   25.674795 C.2        1 MOL1         0.6173
     128    O1      17.514739   20.206980   25.975319 O.co2      1 MOL1        -0.6755
     129    O2      16.316721   18.462686   26.289101 O.co2      1 MOL1        -0.6755
     130    C2      17.723318   18.445359   24.452008 C.2        1 MOL1        -0.1504
     131    H1      17.286806   17.488286   24.177978 H          1 MOL1         0.0814
     132    C3      18.688510   19.000961   23.685098 C.2        1 MOL1        -0.1394
     133    H2      19.140860   19.953342   23.960526 H          1 MOL1         0.0817
     134    C4      19.176819   18.374955   22.398943 C.3        1 MOL1        -0.1849
     135    H3      18.312214   18.021657   21.829575 H          1 MOL1         0.0736
     136    H4      19.787388   17.495493   22.627788 H          1 MOL1         0.0736
     137    C5      19.973941   19.359237   21.520607 C.3        1 MOL1        -0.1866
     138    H5      19.367692   20.256334   21.340851 H          1 MOL1         0.0738
     139    H6      20.880546   19.680294   22.051994 H          1 MOL1         0.0738
     140    C6      20.356973   18.727233   20.167048 C.3        1 MOL1        -0.2879
     141    H7      19.461501   18.426578   19.609259 H          1 MOL1         0.0750
     142    H8      20.911115   19.441478   19.546793 H          1 MOL1         0.0750
     143    H9      20.986848   17.840795   20.316128 H          1 MOL1         0.0750
@<TRIPOS>BOND
    1     1     2    1
    2     1     3    1
    3     1     4    1
    4     4     5    1
    5     4     6    1
    6     6     7    1
    7     4     8    1
    8     8     9    1
    9     8    10    1
   10    10    11    1
   11     8    12    1
   12    12    13    1
   13    12    14    1
   14    14    15    1
   15     1    16    1
   16    14    16    1
   17    14    17    1
   18    17    18    1
   19    17    19    1
   20    17    20    1
   21    20    21    1
   22    22    23    1
   23    22    24    1
   24    22    25    1
   25    25    26    1
   26    25    27    1
   27    27    28    1
   28    25    29    1
   29    29    30    1
   30    29    31    1
   31    31    32    1
   32     3    33    1
   33    29    33    1
   34    33    34    1
   35    33    35    1
   36    35    36    1
   37    22    37    1
   38    35    37    1
   39    35    38    1
   40    38    39    1
   41    38    40    1
   42    38    41    1
   43    41    42    1
   44    43    44    1
   45    43    45    1
   46    43    46    1
   47    46    47    1
   48    46    48    1
   49    48    49    1
   50    46    50    1
   51    50    51    1
   52    50    52    1
   53    52    53    1
   54    24    54    1
   55    50    54    1
   56    54    55    1
   57    54    56    1
   58    56    57    1
   59    43    58    1
   60    56    58    1
   61    56    59    1
   62    59    60    1
   63    59    61    1
   64    59    62    1
   65    62    63    1
   66    64    65    1
   67    64    66    1
   68    64    67    1
   69    67    68    1
   70    67    69    1
   71    69    70    1
   72    67    71    1
   73    71    72    1
   74    71    73    1
   75    73    74    1
   76    45    75    1
   77    71    75    1
   78    75    76    1
   79    75    77    1
   80    77    78    1
   81    64    79    1
   82    77    79    1
   83    77    80    1
   84    80    81    1
   85    80    82    1
   86    80    83    1
   87    83    84    1
   88    85    86    1
   89    85    87    1
   90    85    88    1
   91    88    89    1
   92    88    90    1
   93    90    91    1
   94    88    92    1
   95    92    93    1
   96    92    94    1
   97    94    95    1
   98    66    96    1
   99    92    96    1
  100    96    97    1
  101    96    98    1
  102    98    99    1
  103    85   100    1
  104    98   100    1
  105    98   101    1
  106   101   102    1
  107   101   103    1
  108   101   104    1
  109   104   105    1
  110   106   107    1
  111    12   108    1
  112   106   108    1
  113   106   109    1
  114   109   110    1
  115   109   111    1
  116   111   112    1
  117   109   113    1
  118   113   114    1
  119   113   115    1
  120   115   116    1
  121    87   117    1
  122   113   117    1
  123   117   118    1
  124   117   119    1
  125   119   120    1
  126   106   121    1
  127   119   121    1
  128   119   122    1
  129   122   123    1
  130   122   124    1
  131   122   125    1
  132   125   126    1
  133   127   128    1
  134   127   129    2
  135   127   130    1
  136   130   131    1
  137   130   132    2
  138   132   133    1
  139   132   134    1
  140   134   135    1
  141   134   136    1
  142   134   137    1
  143   137   138    1
  144   137   139    1
  145   137   140    1
  146   140   141    1
  147   140   142    1
  148   140   143    1
@<TRIPOS>SUBSTRUCTURE
       1 MOL1            1 RESIDUE      1      MOL     
       2 MOL1          143 RESIDUE      1      MOL     
@<SCITEGIC>MOL_PROPERTY
feprocess Rank
SciTegic.value.IntegerValue
214

@<SCITEGIC>MOL_PROPERTY
Conf_Id
SciTegic.value.IntegerValue
222

@<SCITEGIC>MOL_PROPERTY
Probability
SciTegic.value.DoubleValue
0.00

@<SCITEGIC>MOL_PROPERTY
G
SciTegic.value.DoubleValue
570.562

@<SCITEGIC>MOL_PROPERTY
E
SciTegic.value.DoubleValue
390.515

@<SCITEGIC>MOL_PROPERTY
-TS
SciTegic.value.DoubleValue
180.047

@<SCITEGIC>MOL_PROPERTY
U+W
SciTegic.value.DoubleValue
264.427

@<SCITEGIC>MOL_PROPERTY
U
SciTegic.value.DoubleValue
349.214

@<SCITEGIC>MOL_PROPERTY
W
SciTegic.value.DoubleValue
-84.787

@<SCITEGIC>MOL_PROPERTY
W(PB)
SciTegic.value.DoubleValue
-90.855

@<SCITEGIC>MOL_PROPERTY
W(SA)
SciTegic.value.DoubleValue
6.068

@<SCITEGIC>MOL_PROPERTY
Valence
SciTegic.value.DoubleValue
218.699

@<SCITEGIC>MOL_PROPERTY
Coulomb
SciTegic.value.DoubleValue
154.356

@<SCITEGIC>MOL_PROPERTY
VdW
SciTegic.value.DoubleValue
-23.842

@<SCITEGIC>MOL_PROPERTY
VdW6
SciTegic.value.DoubleValue
-178.349

@<SCITEGIC>MOL_PROPERTY
VdW12
SciTegic.value.DoubleValue
154.508

@<SCITEGIC>MOL_PROPERTY
Bond
SciTegic.value.DoubleValue
4.984

@<SCITEGIC>MOL_PROPERTY
Angle
SciTegic.value.DoubleValue
80.249

@<SCITEGIC>MOL_PROPERTY
Pdih
SciTegic.value.DoubleValue
133.452

@<SCITEGIC>MOL_PROPERTY
Idih
SciTegic.value.DoubleValue
0.014

@<SCITEGIC>MOL_PROPERTY
Tether
SciTegic.value.DoubleValue
0.000

@<TRIPOS>MOLECULE
CD_guest-s19_fast_vm2_rndm.mol2 : feprocess host+ligand conformer 215
         143         148           2
SMALL
USER_CHARGES
 
@<TRIPOS>ATOM
       1    C1      16.277154   15.339574   20.611719 C.3        1 MOL1         0.2972
       2    H1      15.277662   15.160945   20.195261 H          1 MOL1         0.0751
       3    O1      16.418545   16.683238   21.110185 O.3        1 MOL1        -0.3740
       4    C2      16.555391   14.358357   21.779435 C.3        1 MOL1         0.1003
       5    H2      16.491168   13.340332   21.373709 H          1 MOL1         0.0783
       6    O2      15.583317   14.505352   22.826055 O.3        1 MOL1        -0.5519
       7    H3      15.393833   15.473345   22.921284 H          1 MOL1         0.3769
       8    C3      17.986260   14.558336   22.331292 C.3        1 MOL1         0.1053
       9    H4      18.049673   15.556617   22.786699 H          1 MOL1         0.0783
      10    O3      18.266911   13.554358   23.313138 O.3        1 MOL1        -0.5519
      11    H5      17.464098   13.522844   23.880064 H          1 MOL1         0.3769
      12    C4      19.017451   14.479759   21.181668 C.3        1 MOL1         0.1018
      13    H6      19.041035   13.447008   20.809485 H          1 MOL1         0.0783
      14    C5      18.649867   15.425901   20.004974 C.3        1 MOL1         0.1043
      15    H7      18.721867   16.463574   20.355264 H          1 MOL1         0.0783
      16    O4      17.287230   15.141656   19.596581 O.3        1 MOL1        -0.3740
      17    C6      19.564186   15.297564   18.758997 C.3        1 MOL1         0.0138
      18    H8      20.430830   15.955298   18.890829 H          1 MOL1         0.0794
      19    H9      19.018072   15.674620   17.884298 H          1 MOL1         0.0794
      20    O5      20.012255   13.956811   18.523174 O.3        1 MOL1        -0.5486
      21    H10     20.733757   13.780024   19.170771 H          1 MOL1         0.3769
      22    C7      14.628923   20.414012   21.221527 C.3        1 MOL1         0.2972
      23    H11     13.952338   21.275973   21.162786 H          1 MOL1         0.0751
      24    O6      15.954296   20.796654   21.626448 O.3        1 MOL1        -0.3740
      25    C8      14.105808   19.405690   22.268132 C.3        1 MOL1         0.1003
      26    H12     13.112197   19.070196   21.943704 H          1 MOL1         0.0783
      27    O7      14.002352   20.032996   23.556890 O.3        1 MOL1        -0.5519
      28    H13     14.757686   20.668877   23.629497 H          1 MOL1         0.3769
      29    C9      15.033312   18.171638   22.340717 C.3        1 MOL1         0.1053
      30    H14     15.998492   18.493250   22.756873 H          1 MOL1         0.0783
      31    O8      14.441306   17.191996   23.199066 O.3        1 MOL1        -0.5519
      32    H15     14.145700   17.694455   23.991178 H          1 MOL1         0.3769
      33    C10     15.292462   17.564662   20.937844 C.3        1 MOL1         0.1018
      34    H16     14.391090   17.027124   20.614515 H          1 MOL1         0.0783
      35    C11     15.669360   18.644234   19.872292 C.3        1 MOL1         0.1043
      36    H17     16.665129   19.034249   20.127620 H          1 MOL1         0.0783
      37    O9      14.715944   19.743297   19.948369 O.3        1 MOL1        -0.3740
      38    C12     15.718155   18.123125   18.396795 C.3        1 MOL1         0.0138
      39    H18     16.661289   17.694306   18.759403 H          1 MOL1         0.0794
      40    H19     14.633525   18.080677   18.556481 H          1 MOL1         0.0794
      41    O10     15.450072   16.777997   17.981994 O.3        1 MOL1        -0.5486
      42    H20     16.221658   16.216141   18.232627 H          1 MOL1         0.3769
      43    C13     18.470267   24.115145   21.682622 C.3        1 MOL1         0.2972
      44    H21     18.866581   25.137915   21.643096 H          1 MOL1         0.0751
      45    O11     19.518825   23.146808   21.866478 O.3        1 MOL1        -0.3740
      46    C14     17.497304   23.980864   22.879350 C.3        1 MOL1         0.1003
      47    H22     16.688166   24.708302   22.733875 H          1 MOL1         0.0783
      48    O12     18.179165   24.266954   24.110997 O.3        1 MOL1        -0.5519
      49    H23     19.130941   24.040871   23.967765 H          1 MOL1         0.3769
      50    C15     16.870888   22.568182   22.921957 C.3        1 MOL1         0.1053
      51    H24     17.664353   21.844424   23.154953 H          1 MOL1         0.0783
      52    O13     15.858539   22.521504   23.933928 O.3        1 MOL1        -0.5519
      53    H25     16.272870   22.931018   24.725804 H          1 MOL1         0.3769
      54    C16     16.261792   22.197167   21.549704 C.3        1 MOL1         0.1018
      55    H26     15.365792   22.811737   21.392040 H          1 MOL1         0.0783
      56    C17     17.266141   22.428538   20.386535 C.3        1 MOL1         0.1043
      57    H27     18.098302   21.725172   20.511649 H          1 MOL1         0.0783
      58    O14     17.767832   23.787952   20.463361 O.3        1 MOL1        -0.3740
      59    C18     16.694833   22.192139   18.965812 C.3        1 MOL1         0.0138
      60    H28     16.755744   21.119255   18.740440 H          1 MOL1         0.0794
      61    H29     17.340950   22.703117   18.239870 H          1 MOL1         0.0794
      62    O15     15.341642   22.638493   18.822921 O.3        1 MOL1        -0.5486
      63    H30     14.770842   21.863921   19.023788 H          1 MOL1         0.3769
      64    C19     23.622512   22.711306   21.250145 C.3        1 MOL1         0.2972
      65    H31     24.669890   22.895074   20.978851 H          1 MOL1         0.0751
      66    O16     23.425321   21.365805   21.721669 O.3        1 MOL1        -0.3740
      67    C20     23.207288   23.667942   22.394495 C.3        1 MOL1         0.1003
      68    H32     23.356099   24.696405   22.040723 H          1 MOL1         0.0783
      69    O17     24.024804   23.437378   23.553145 O.3        1 MOL1        -0.5519
      70    H33     24.238677   22.472111   23.560091 H          1 MOL1         0.3769
      71    C21     21.711760   23.491068   22.744716 C.3        1 MOL1         0.1053
      72    H34     21.581138   22.496543   23.189845 H          1 MOL1         0.0783
      73    O18     21.313544   24.497224   23.682215 O.3        1 MOL1        -0.5519
      74    H35     22.014363   24.496116   24.371354 H          1 MOL1         0.3769
      75    C22     20.833804   23.573166   21.473678 C.3        1 MOL1         0.1018
      76    H36     20.843034   24.610005   21.112517 H          1 MOL1         0.0783
      77    C23     21.352100   22.635844   20.347766 C.3        1 MOL1         0.1043
      78    H37     21.240824   21.595916   20.684219 H          1 MOL1         0.0783
      79    O19     22.753988   22.927717   20.117310 O.3        1 MOL1        -0.3740
      80    C24     20.604673   22.758306   18.994474 C.3        1 MOL1         0.0138
      81    H38     19.740449   22.083653   19.009041 H          1 MOL1         0.0794
      82    H39     21.266500   22.400170   18.194962 H          1 MOL1         0.0794
      83    O20     20.169143   24.092617   18.709186 O.3        1 MOL1        -0.5486
      84    H40     19.330148   24.227994   19.207857 H          1 MOL1         0.3769
      85    C25     25.063710   17.543694   21.242210 C.3        1 MOL1         0.2972
      86    H41     25.718858   16.704762   20.974268 H          1 MOL1         0.0751
      87    O21     23.826869   17.093653   21.819245 O.3        1 MOL1        -0.3740
      88    C26     25.738742   18.447123   22.304319 C.3        1 MOL1         0.1003
      89    H42     26.691186   18.799039   21.887278 H          1 MOL1         0.0783
      90    O22     25.985849   17.700047   23.507312 O.3        1 MOL1        -0.5519
      91    H43     25.169758   17.169514   23.683093 H          1 MOL1         0.3769
      92    C27     24.858954   19.683855   22.617096 C.3        1 MOL1         0.1053
      93    H44     23.953933   19.339072   23.136824 H          1 MOL1         0.0783
      94    O23     25.585491   20.588249   23.457378 O.3        1 MOL1        -0.5519
      95    H45     25.963619   20.028730   24.171295 H          1 MOL1         0.3769
      96    C28     24.419684   20.406477   21.320240 C.3        1 MOL1         0.1018
      97    H46     25.302941   20.887727   20.880180 H          1 MOL1         0.0783
      98    C29     23.806758   19.414602   20.291544 C.3        1 MOL1         0.1043
      99    H47     22.876771   19.006131   20.707632 H          1 MOL1         0.0783
     100    O24     24.761255   18.346816   20.082088 O.3        1 MOL1        -0.3740
     101    C30     23.450647   20.011636   18.907238 C.3        1 MOL1         0.0138
     102    H48     22.432104   20.415598   18.955580 H          1 MOL1         0.0794
     103    H49     23.423900   19.194367   18.174286 H          1 MOL1         0.0794
     104    O25     24.360120   21.032022   18.478826 O.3        1 MOL1        -0.5486
     105    H50     24.028759   21.875926   18.862685 H          1 MOL1         0.3769
     106    C31     21.279530   13.845423   21.783954 C.3        1 MOL1         0.2972
     107    H51     20.824368   12.846593   21.774672 H          1 MOL1         0.0751
     108    O26     20.282588   14.882245   21.732849 O.3        1 MOL1        -0.3740
     109    C32     22.102403   14.025122   23.080695 C.3        1 MOL1         0.1003
     110    H52     22.886322   13.256686   23.086980 H          1 MOL1         0.0783
     111    O27     21.260177   13.857553   24.232391 O.3        1 MOL1        -0.5519
     112    H53     20.335761   14.047477   23.937224 H          1 MOL1         0.3769
     113    C33     22.786730   15.409208   23.105587 C.3        1 MOL1         0.1053
     114    H54     22.002519   16.172411   23.197165 H          1 MOL1         0.0783
     115    O28     23.672072   15.487997   24.229160 O.3        1 MOL1        -0.5519
     116    H55     23.143718   15.163399   24.991623 H          1 MOL1         0.3769
     117    C34     23.574311   15.679213   21.801002 C.3        1 MOL1         0.1018
     118    H56     24.504443   15.096581   21.830951 H          1 MOL1         0.0783
     119    C35     22.758423   15.332261   20.520337 C.3        1 MOL1         0.1043
     120    H57     21.971004   16.089689   20.412509 H          1 MOL1         0.0783
     121    O29     22.155437   14.018415   20.653047 O.3        1 MOL1        -0.3740
     122    C36     23.582304   15.333874   19.210118 C.3        1 MOL1         0.0138
     123    H58     23.780309   16.372312   18.917834 H          1 MOL1         0.0794
     124    H59     22.969658   14.892116   18.412776 H          1 MOL1         0.0794
     125    O30     24.815226   14.615193   19.344606 O.3        1 MOL1        -0.5486
     126    H60     25.253341   14.610155   18.465914 H          1 MOL1         0.3769
     127    C1      19.693507   19.047944   19.720035 C.2        1 MOL1         0.6173
     128    O1      18.913101   19.644674   19.003540 O.co2      1 MOL1        -0.6755
     129    O2      20.649290   18.419695   19.303645 O.co2      1 MOL1        -0.6755
     130    C2      19.455219   19.123332   21.185097 C.2        1 MOL1        -0.1504
     131    H1      18.599086   19.713707   21.499512 H          1 MOL1         0.0814
     132    C3      20.236225   18.521566   22.108514 C.2        1 MOL1        -0.1394
     133    H2      21.097878   17.925892   21.812773 H          1 MOL1         0.0817
     134    C4      19.998732   18.646888   23.595292 C.3        1 MOL1        -0.1849
     135    H3      20.541018   17.855344   24.128684 H          1 MOL1         0.0736
     136    H4      18.932456   18.504040   23.816753 H          1 MOL1         0.0736
     137    C5      20.459342   20.027665   24.104793 C.3        1 MOL1        -0.1866
     138    H5      21.528691   20.159072   23.888978 H          1 MOL1         0.0738
     139    H6      19.923863   20.816896   23.560149 H          1 MOL1         0.0738
     140    C6      20.212538   20.195872   25.616302 C.3        1 MOL1        -0.2879
     141    H7      20.760600   19.437224   26.189885 H          1 MOL1         0.0750
     142    H8      20.547161   21.185456   25.953398 H          1 MOL1         0.0750
     143    H9      19.144495   20.100506   25.851391 H          1 MOL1         0.0750
@<TRIPOS>BOND
    1     1     2    1
    2     1     3    1
    3     1     4    1
    4     4     5    1
    5     4     6    1
    6     6     7    1
    7     4     8    1
    8     8     9    1
    9     8    10    1
   10    10    11    1
   11     8    12    1
   12    12    13    1
   13    12    14    1
   14    14    15    1
   15     1    16    1
   16    14    16    1
   17    14    17    1
   18    17    18    1
   19    17    19    1
   20    17    20    1
   21    20    21    1
   22    22    23    1
   23    22    24    1
   24    22    25    1
   25    25    26    1
   26    25    27    1
   27    27    28    1
   28    25    29    1
   29    29    30    1
   30    29    31    1
   31    31    32    1
   32     3    33    1
   33    29    33    1
   34    33    34    1
   35    33    35    1
   36    35    36    1
   37    22    37    1
   38    35    37    1
   39    35    38    1
   40    38    39    1
   41    38    40    1
   42    38    41    1
   43    41    42    1
   44    43    44    1
   45    43    45    1
   46    43    46    1
   47    46    47    1
   48    46    48    1
   49    48    49    1
   50    46    50    1
   51    50    51    1
   52    50    52    1
   53    52    53    1
   54    24    54    1
   55    50    54    1
   56    54    55    1
   57    54    56    1
   58    56    57    1
   59    43    58    1
   60    56    58    1
   61    56    59    1
   62    59    60    1
   63    59    61    1
   64    59    62    1
   65    62    63    1
   66    64    65    1
   67    64    66    1
   68    64    67    1
   69    67    68    1
   70    67    69    1
   71    69    70    1
   72    67    71    1
   73    71    72    1
   74    71    73    1
   75    73    74    1
   76    45    75    1
   77    71    75    1
   78    75    76    1
   79    75    77    1
   80    77    78    1
   81    64    79    1
   82    77    79    1
   83    77    80    1
   84    80    81    1
   85    80    82    1
   86    80    83    1
   87    83    84    1
   88    85    86    1
   89    85    87    1
   90    85    88    1
   91    88    89    1
   92    88    90    1
   93    90    91    1
   94    88    92    1
   95    92    93    1
   96    92    94    1
   97    94    95    1
   98    66    96    1
   99    92    96    1
  100    96    97    1
  101    96    98    1
  102    98    99    1
  103    85   100    1
  104    98   100    1
  105    98   101    1
  106   101   102    1
  107   101   103    1
  108   101   104    1
  109   104   105    1
  110   106   107    1
  111    12   108    1
  112   106   108    1
  113   106   109    1
  114   109   110    1
  115   109   111    1
  116   111   112    1
  117   109   113    1
  118   113   114    1
  119   113   115    1
  120   115   116    1
  121    87   117    1
  122   113   117    1
  123   117   118    1
  124   117   119    1
  125   119   120    1
  126   106   121    1
  127   119   121    1
  128   119   122    1
  129   122   123    1
  130   122   124    1
  131   122   125    1
  132   125   126    1
  133   127   128    1
  134   127   129    2
  135   127   130    1
  136   130   131    1
  137   130   132    2
  138   132   133    1
  139   132   134    1
  140   134   135    1
  141   134   136    1
  142   134   137    1
  143   137   138    1
  144   137   139    1
  145   137   140    1
  146   140   141    1
  147   140   142    1
  148   140   143    1
@<TRIPOS>SUBSTRUCTURE
       1 MOL1            1 RESIDUE      1      MOL     
       2 MOL1          143 RESIDUE      1      MOL     
@<SCITEGIC>MOL_PROPERTY
feprocess Rank
SciTegic.value.IntegerValue
215

@<SCITEGIC>MOL_PROPERTY
Conf_Id
SciTegic.value.IntegerValue
942

@<SCITEGIC>MOL_PROPERTY
Probability
SciTegic.value.DoubleValue
0.00

@<SCITEGIC>MOL_PROPERTY
G
SciTegic.value.DoubleValue
573.312

@<SCITEGIC>MOL_PROPERTY
E
SciTegic.value.DoubleValue
393.641

@<SCITEGIC>MOL_PROPERTY
-TS
SciTegic.value.DoubleValue
179.672

@<SCITEGIC>MOL_PROPERTY
U+W
SciTegic.value.DoubleValue
267.552

@<SCITEGIC>MOL_PROPERTY
U
SciTegic.value.DoubleValue
333.454

@<SCITEGIC>MOL_PROPERTY
W
SciTegic.value.DoubleValue
-65.901

@<SCITEGIC>MOL_PROPERTY
W(PB)
SciTegic.value.DoubleValue
-71.860

@<SCITEGIC>MOL_PROPERTY
W(SA)
SciTegic.value.DoubleValue
5.959

@<SCITEGIC>MOL_PROPERTY
Valence
SciTegic.value.DoubleValue
219.648

@<SCITEGIC>MOL_PROPERTY
Coulomb
SciTegic.value.DoubleValue
140.316

@<SCITEGIC>MOL_PROPERTY
VdW
SciTegic.value.DoubleValue
-26.510

@<SCITEGIC>MOL_PROPERTY
VdW6
SciTegic.value.DoubleValue
-181.113

@<SCITEGIC>MOL_PROPERTY
VdW12
SciTegic.value.DoubleValue
154.603

@<SCITEGIC>MOL_PROPERTY
Bond
SciTegic.value.DoubleValue
4.653

@<SCITEGIC>MOL_PROPERTY
Angle
SciTegic.value.DoubleValue
79.136

@<SCITEGIC>MOL_PROPERTY
Pdih
SciTegic.value.DoubleValue
135.857

@<SCITEGIC>MOL_PROPERTY
Idih
SciTegic.value.DoubleValue
0.002

@<SCITEGIC>MOL_PROPERTY
Tether
SciTegic.value.DoubleValue
0.000

