@<TRIPOS>MOLECULE
guest-s14_vm2.mol2 : vm2 ligand conformer 1
          26          25           1
SMALL
USER_CHARGES
 
@<TRIPOS>ATOM
       1    C1      19.905242   19.310654   18.816232 C.3        1 MOL1        -0.2400
       2    H1      20.294539   20.336914   18.794256 H          1 MOL1         0.0971
       3    H2      20.278689   18.789459   17.925198 H          1 MOL1         0.0971
       4    H3      18.810784   19.358496   18.744701 H          1 MOL1         0.0971
       5    C2      20.345723   18.577600   20.101041 C.3        1 MOL1        -0.1385
       6    H4      21.442719   18.515742   20.127544 H          1 MOL1         0.0960
       7    H5      19.970431   17.544851   20.078356 H          1 MOL1         0.0960
       8    C3      19.832668   19.291246   21.371390 C.3        1 MOL1        -0.1409
       9    H6      20.208340   20.323732   21.388345 H          1 MOL1         0.0960
      10    H7      18.736016   19.352628   21.339244 H          1 MOL1         0.0960
      11    C4      20.271902   18.560157   22.660169 C.3        1 MOL1        -0.1409
      12    H8      21.368624   18.498931   22.691308 H          1 MOL1         0.0960
      13    H9      19.896194   17.527667   22.642165 H          1 MOL1         0.0960
      14    C5      19.758287   19.274504   23.930780 C.3        1 MOL1        -0.1409
      15    H10     20.133955   20.307134   23.949228 H          1 MOL1         0.0960
      16    H11     18.661443   19.335945   23.900008 H          1 MOL1         0.0960
      17    C6      20.196808   18.544302   25.219269 C.3        1 MOL1        -0.1450
      18    H12     21.292832   18.485485   25.256417 H          1 MOL1         0.0960
      19    H13     19.818753   17.513265   25.207123 H          1 MOL1         0.0960
      20    C7      19.680239   19.263714   26.477703 C.3        1 MOL1         0.0172
      21    H14     20.067622   20.285865   26.502603 H          1 MOL1         0.0934
      22    H15     18.588125   19.310181   26.453059 H          1 MOL1         0.0934
      23    N1      20.090131   18.576824   27.764415 N.4        1 MOL1        -0.5956
      24    H16     19.735945   19.071996   28.590141 H          1 MOL1         0.3624
      25    H17     21.109456   18.525017   27.862158 H          1 MOL1         0.3624
      26    H18     19.732799   17.617184   27.816069 H          1 MOL1         0.3624
@<TRIPOS>BOND
    1     1     2    1
    2     1     3    1
    3     1     4    1
    4     1     5    1
    5     5     6    1
    6     5     7    1
    7     5     8    1
    8     8     9    1
    9     8    10    1
   10     8    11    1
   11    11    12    1
   12    11    13    1
   13    11    14    1
   14    14    15    1
   15    14    16    1
   16    14    17    1
   17    17    18    1
   18    17    19    1
   19    17    20    1
   20    20    21    1
   21    20    22    1
   22    20    23    1
   23    23    24    1
   24    23    25    1
   25    23    26    1
@<TRIPOS>SUBSTRUCTURE
       1 MOL1            1 RESIDUE      1      MOL     
@<SCITEGIC>MOL_PROPERTY
VM2 Rank
SciTegic.value.IntegerValue
1

@<SCITEGIC>MOL_PROPERTY
Conf_Id
SciTegic.value.IntegerValue
316

@<SCITEGIC>MOL_PROPERTY
Probability
SciTegic.value.DoubleValue
7.28

@<SCITEGIC>MOL_PROPERTY
Sum Probability
SciTegic.value.DoubleValue
7.28

@<SCITEGIC>MOL_PROPERTY
Delta G
SciTegic.value.DoubleValue
0.000

@<SCITEGIC>MOL_PROPERTY
G
SciTegic.value.DoubleValue
48.261

@<SCITEGIC>MOL_PROPERTY
E
SciTegic.value.DoubleValue
15.909

@<SCITEGIC>MOL_PROPERTY
-TS
SciTegic.value.DoubleValue
32.352

@<SCITEGIC>MOL_PROPERTY
U+W
SciTegic.value.DoubleValue
-5.553

@<SCITEGIC>MOL_PROPERTY
U
SciTegic.value.DoubleValue
47.192

@<SCITEGIC>MOL_PROPERTY
W
SciTegic.value.DoubleValue
-52.745

@<SCITEGIC>MOL_PROPERTY
W(PB)
SciTegic.value.DoubleValue
-55.136

@<SCITEGIC>MOL_PROPERTY
W(SA)
SciTegic.value.DoubleValue
2.391

@<SCITEGIC>MOL_PROPERTY
Valence
SciTegic.value.DoubleValue
2.156

@<SCITEGIC>MOL_PROPERTY
Coulomb
SciTegic.value.DoubleValue
44.449

@<SCITEGIC>MOL_PROPERTY
VdW
SciTegic.value.DoubleValue
0.587

@<SCITEGIC>MOL_PROPERTY
VdW6
SciTegic.value.DoubleValue
-5.761

@<SCITEGIC>MOL_PROPERTY
VdW12
SciTegic.value.DoubleValue
6.348

@<SCITEGIC>MOL_PROPERTY
Bond
SciTegic.value.DoubleValue
0.129

@<SCITEGIC>MOL_PROPERTY
Angle
SciTegic.value.DoubleValue
0.393

@<SCITEGIC>MOL_PROPERTY
Pdih
SciTegic.value.DoubleValue
1.634

@<SCITEGIC>MOL_PROPERTY
Idih
SciTegic.value.DoubleValue
0.000

@<SCITEGIC>MOL_PROPERTY
Tether
SciTegic.value.DoubleValue
0.000

@<TRIPOS>MOLECULE
guest-s14_vm2.mol2 : vm2 ligand conformer 2
          26          25           1
SMALL
USER_CHARGES
 
@<TRIPOS>ATOM
       1    C1      20.140804   19.649892   19.000844 C.3        1 MOL1        -0.2400
       2    H1      19.134736   20.085336   18.942032 H          1 MOL1         0.0971
       3    H2      20.862085   20.469640   19.114896 H          1 MOL1         0.0971
       4    H3      20.347700   19.149431   18.045971 H          1 MOL1         0.0971
       5    C2      20.245561   18.651602   20.173266 C.3        1 MOL1        -0.1385
       6    H4      21.251011   18.207932   20.185546 H          1 MOL1         0.0960
       7    H5      19.536981   17.826685   20.014040 H          1 MOL1         0.0960
       8    C3      19.958635   19.331014   21.530603 C.3        1 MOL1        -0.1409
       9    H6      20.667835   20.156176   21.684106 H          1 MOL1         0.0960
      10    H7      18.953625   19.774944   21.512662 H          1 MOL1         0.0960
      11    C4      20.062481   18.334331   22.707151 C.3        1 MOL1        -0.1409
      12    H8      21.067770   17.890930   22.724541 H          1 MOL1         0.0960
      13    H9      19.353638   17.509142   22.551933 H          1 MOL1         0.0960
      14    C5      19.774803   19.014235   24.064872 C.3        1 MOL1        -0.1409
      15    H10     20.482642   19.840815   24.212421 H          1 MOL1         0.0960
      16    H11     18.768302   19.455098   24.048376 H          1 MOL1         0.0960
      17    C6      19.880080   18.015076   25.241275 C.3        1 MOL1        -0.1450
      18    H12     20.892248   17.591403   25.286104 H          1 MOL1         0.0960
      19    H13     19.195874   17.174075   25.066460 H          1 MOL1         0.0960
      20    C7      19.529509   18.654435   26.598733 C.3        1 MOL1         0.0172
      21    H14     18.524421   19.082609   26.555380 H          1 MOL1         0.0934
      22    H15     19.538967   17.884757   27.375312 H          1 MOL1         0.0934
      23    N1      20.489129   19.748416   27.024255 N.4        1 MOL1        -0.5956
      24    H16     20.235504   20.143698   27.936270 H          1 MOL1         0.3624
      25    H17     20.502127   20.523822   26.354544 H          1 MOL1         0.3624
      26    H18     21.450398   19.401395   27.105354 H          1 MOL1         0.3624
@<TRIPOS>BOND
    1     1     2    1
    2     1     3    1
    3     1     4    1
    4     1     5    1
    5     5     6    1
    6     5     7    1
    7     5     8    1
    8     8     9    1
    9     8    10    1
   10     8    11    1
   11    11    12    1
   12    11    13    1
   13    11    14    1
   14    14    15    1
   15    14    16    1
   16    14    17    1
   17    17    18    1
   18    17    19    1
   19    17    20    1
   20    20    21    1
   21    20    22    1
   22    20    23    1
   23    23    24    1
   24    23    25    1
   25    23    26    1
@<TRIPOS>SUBSTRUCTURE
       1 MOL1            1 RESIDUE      1      MOL     
@<SCITEGIC>MOL_PROPERTY
VM2 Rank
SciTegic.value.IntegerValue
2

@<SCITEGIC>MOL_PROPERTY
Conf_Id
SciTegic.value.IntegerValue
307

@<SCITEGIC>MOL_PROPERTY
Probability
SciTegic.value.DoubleValue
4.80

@<SCITEGIC>MOL_PROPERTY
Sum Probability
SciTegic.value.DoubleValue
12.09

@<SCITEGIC>MOL_PROPERTY
Delta G
SciTegic.value.DoubleValue
0.248

@<SCITEGIC>MOL_PROPERTY
G
SciTegic.value.DoubleValue
48.509

@<SCITEGIC>MOL_PROPERTY
E
SciTegic.value.DoubleValue
16.054

@<SCITEGIC>MOL_PROPERTY
-TS
SciTegic.value.DoubleValue
32.455

@<SCITEGIC>MOL_PROPERTY
U+W
SciTegic.value.DoubleValue
-5.408

@<SCITEGIC>MOL_PROPERTY
U
SciTegic.value.DoubleValue
47.845

@<SCITEGIC>MOL_PROPERTY
W
SciTegic.value.DoubleValue
-53.253

@<SCITEGIC>MOL_PROPERTY
W(PB)
SciTegic.value.DoubleValue
-55.604

@<SCITEGIC>MOL_PROPERTY
W(SA)
SciTegic.value.DoubleValue
2.351

@<SCITEGIC>MOL_PROPERTY
Valence
SciTegic.value.DoubleValue
2.258

@<SCITEGIC>MOL_PROPERTY
Coulomb
SciTegic.value.DoubleValue
44.894

@<SCITEGIC>MOL_PROPERTY
VdW
SciTegic.value.DoubleValue
0.694

@<SCITEGIC>MOL_PROPERTY
VdW6
SciTegic.value.DoubleValue
-6.285

@<SCITEGIC>MOL_PROPERTY
VdW12
SciTegic.value.DoubleValue
6.979

@<SCITEGIC>MOL_PROPERTY
Bond
SciTegic.value.DoubleValue
0.149

@<SCITEGIC>MOL_PROPERTY
Angle
SciTegic.value.DoubleValue
0.434

@<SCITEGIC>MOL_PROPERTY
Pdih
SciTegic.value.DoubleValue
1.675

@<SCITEGIC>MOL_PROPERTY
Idih
SciTegic.value.DoubleValue
0.000

@<SCITEGIC>MOL_PROPERTY
Tether
SciTegic.value.DoubleValue
0.000

@<TRIPOS>MOLECULE
guest-s14_vm2.mol2 : vm2 ligand conformer 3
          26          25           1
SMALL
USER_CHARGES
 
@<TRIPOS>ATOM
       1    C1      19.492560   19.222335   18.979189 C.3        1 MOL1        -0.2400
       2    H1      19.489961   20.319879   18.954027 H          1 MOL1         0.0971
       3    H2      19.915603   18.864566   18.031515 H          1 MOL1         0.0971
       4    H3      18.451222   18.879084   19.034271 H          1 MOL1         0.0971
       5    C2      20.313961   18.696799   20.175534 C.3        1 MOL1        -0.1385
       6    H4      21.357180   19.027691   20.074886 H          1 MOL1         0.0960
       7    H5      20.326485   17.598014   20.154558 H          1 MOL1         0.0960
       8    C3      19.739225   19.186250   21.523273 C.3        1 MOL1        -0.1409
       9    H6      19.726659   20.284908   21.538594 H          1 MOL1         0.0960
      10    H7      18.695770   18.855156   21.618134 H          1 MOL1         0.0960
      11    C4      20.559224   18.661947   22.723745 C.3        1 MOL1        -0.1409
      12    H8      21.602679   18.992621   22.627087 H          1 MOL1         0.0960
      13    H9      20.571086   17.563256   22.707927 H          1 MOL1         0.0960
      14    C5      19.984438   19.152450   24.071876 C.3        1 MOL1        -0.1409
      15    H10     19.975342   20.251226   24.088719 H          1 MOL1         0.0960
      16    H11     18.940457   18.823481   24.160886 H          1 MOL1         0.0960
      17    C6      20.806160   18.625866   25.272211 C.3        1 MOL1        -0.1450
      18    H12     21.855400   18.928185   25.155261 H          1 MOL1         0.0960
      19    H13     20.795830   17.527789   25.282932 H          1 MOL1         0.0960
      20    C7      20.293416   19.158308   26.624234 C.3        1 MOL1         0.0172
      21    H14     20.960560   18.822451   27.422786 H          1 MOL1         0.0934
      22    H15     20.296759   20.251609   26.614511 H          1 MOL1         0.0934
      23    N1      18.892016   18.695046   26.970938 N.4        1 MOL1        -0.5956
      24    H16     18.586100   19.055894   27.881184 H          1 MOL1         0.3624
      25    H17     18.829593   17.672827   27.017913 H          1 MOL1         0.3624
      26    H18     18.205825   19.009242   26.277858 H          1 MOL1         0.3624
@<TRIPOS>BOND
    1     1     2    1
    2     1     3    1
    3     1     4    1
    4     1     5    1
    5     5     6    1
    6     5     7    1
    7     5     8    1
    8     8     9    1
    9     8    10    1
   10     8    11    1
   11    11    12    1
   12    11    13    1
   13    11    14    1
   14    14    15    1
   15    14    16    1
   16    14    17    1
   17    17    18    1
   18    17    19    1
   19    17    20    1
   20    20    21    1
   21    20    22    1
   22    20    23    1
   23    23    24    1
   24    23    25    1
   25    23    26    1
@<TRIPOS>SUBSTRUCTURE
       1 MOL1            1 RESIDUE      1      MOL     
@<SCITEGIC>MOL_PROPERTY
VM2 Rank
SciTegic.value.IntegerValue
3

@<SCITEGIC>MOL_PROPERTY
Conf_Id
SciTegic.value.IntegerValue
1027

@<SCITEGIC>MOL_PROPERTY
Probability
SciTegic.value.DoubleValue
4.67

@<SCITEGIC>MOL_PROPERTY
Sum Probability
SciTegic.value.DoubleValue
16.76

@<SCITEGIC>MOL_PROPERTY
Delta G
SciTegic.value.DoubleValue
0.265

@<SCITEGIC>MOL_PROPERTY
G
SciTegic.value.DoubleValue
48.526

@<SCITEGIC>MOL_PROPERTY
E
SciTegic.value.DoubleValue
16.070

@<SCITEGIC>MOL_PROPERTY
-TS
SciTegic.value.DoubleValue
32.455

@<SCITEGIC>MOL_PROPERTY
U+W
SciTegic.value.DoubleValue
-5.391

@<SCITEGIC>MOL_PROPERTY
U
SciTegic.value.DoubleValue
47.845

@<SCITEGIC>MOL_PROPERTY
W
SciTegic.value.DoubleValue
-53.236

@<SCITEGIC>MOL_PROPERTY
W(PB)
SciTegic.value.DoubleValue
-55.585

@<SCITEGIC>MOL_PROPERTY
W(SA)
SciTegic.value.DoubleValue
2.349

@<SCITEGIC>MOL_PROPERTY
Valence
SciTegic.value.DoubleValue
2.258

@<SCITEGIC>MOL_PROPERTY
Coulomb
SciTegic.value.DoubleValue
44.893

@<SCITEGIC>MOL_PROPERTY
VdW
SciTegic.value.DoubleValue
0.694

@<SCITEGIC>MOL_PROPERTY
VdW6
SciTegic.value.DoubleValue
-6.285

@<SCITEGIC>MOL_PROPERTY
VdW12
SciTegic.value.DoubleValue
6.979

@<SCITEGIC>MOL_PROPERTY
Bond
SciTegic.value.DoubleValue
0.149

@<SCITEGIC>MOL_PROPERTY
Angle
SciTegic.value.DoubleValue
0.434

@<SCITEGIC>MOL_PROPERTY
Pdih
SciTegic.value.DoubleValue
1.675

@<SCITEGIC>MOL_PROPERTY
Idih
SciTegic.value.DoubleValue
0.000

@<SCITEGIC>MOL_PROPERTY
Tether
SciTegic.value.DoubleValue
0.000

@<TRIPOS>MOLECULE
guest-s14_vm2.mol2 : vm2 ligand conformer 4
          26          25           1
SMALL
USER_CHARGES
 
@<TRIPOS>ATOM
       1    C1      19.768636   18.853410   18.989678 C.3        1 MOL1        -0.2400
       2    H1      20.547258   19.575189   18.710342 H          1 MOL1         0.0971
       3    H2      19.777797   18.044035   18.248143 H          1 MOL1         0.0971
       4    H3      18.795763   19.358056   18.925716 H          1 MOL1         0.0971
       5    C2      20.012176   18.295808   20.408086 C.3        1 MOL1        -0.1385
       6    H4      20.976022   17.768206   20.431831 H          1 MOL1         0.0960
       7    H5      19.238029   17.552650   20.645427 H          1 MOL1         0.0960
       8    C3      20.004181   19.415625   21.472187 C.3        1 MOL1        -0.1409
       9    H6      20.777647   20.157190   21.228744 H          1 MOL1         0.0960
      10    H7      19.039675   19.941318   21.443402 H          1 MOL1         0.0960
      11    C4      20.248126   18.861264   22.894000 C.3        1 MOL1        -0.1409
      12    H8      21.214038   18.338153   22.922057 H          1 MOL1         0.0960
      13    H9      19.475520   18.116640   23.127840 H          1 MOL1         0.0960
      14    C5      20.238242   19.985223   23.957783 C.3        1 MOL1        -0.1409
      15    H10     20.981475   20.747236   23.685069 H          1 MOL1         0.0960
      16    H11     19.261691   20.489188   23.955846 H          1 MOL1         0.0960
      17    C6      20.552124   19.474588   25.383725 C.3        1 MOL1        -0.1450
      18    H12     20.614683   20.334186   26.064259 H          1 MOL1         0.0960
      19    H13     21.538878   18.992708   25.394332 H          1 MOL1         0.0960
      20    C7      19.490043   18.491651   25.911150 C.3        1 MOL1         0.0172
      21    H14     18.507725   18.971605   25.901781 H          1 MOL1         0.0934
      22    H15     19.448922   17.609862   25.266610 H          1 MOL1         0.0934
      23    N1      19.767472   18.021430   27.324391 N.4        1 MOL1        -0.5956
      24    H16     19.049413   17.368436   27.656640 H          1 MOL1         0.3624
      25    H17     19.791348   18.801794   27.988985 H          1 MOL1         0.3624
      26    H18     20.667986   17.536495   27.395967 H          1 MOL1         0.3624
@<TRIPOS>BOND
    1     1     2    1
    2     1     3    1
    3     1     4    1
    4     1     5    1
    5     5     6    1
    6     5     7    1
    7     5     8    1
    8     8     9    1
    9     8    10    1
   10     8    11    1
   11    11    12    1
   12    11    13    1
   13    11    14    1
   14    14    15    1
   15    14    16    1
   16    14    17    1
   17    17    18    1
   18    17    19    1
   19    17    20    1
   20    20    21    1
   21    20    22    1
   22    20    23    1
   23    23    24    1
   24    23    25    1
   25    23    26    1
@<TRIPOS>SUBSTRUCTURE
       1 MOL1            1 RESIDUE      1      MOL     
@<SCITEGIC>MOL_PROPERTY
VM2 Rank
SciTegic.value.IntegerValue
4

@<SCITEGIC>MOL_PROPERTY
Conf_Id
SciTegic.value.IntegerValue
1028

@<SCITEGIC>MOL_PROPERTY
Probability
SciTegic.value.DoubleValue
3.31

@<SCITEGIC>MOL_PROPERTY
Sum Probability
SciTegic.value.DoubleValue
20.07

@<SCITEGIC>MOL_PROPERTY
Delta G
SciTegic.value.DoubleValue
0.470

@<SCITEGIC>MOL_PROPERTY
G
SciTegic.value.DoubleValue
48.731

@<SCITEGIC>MOL_PROPERTY
E
SciTegic.value.DoubleValue
16.280

@<SCITEGIC>MOL_PROPERTY
-TS
SciTegic.value.DoubleValue
32.451

@<SCITEGIC>MOL_PROPERTY
U+W
SciTegic.value.DoubleValue
-5.182

@<SCITEGIC>MOL_PROPERTY
U
SciTegic.value.DoubleValue
48.002

@<SCITEGIC>MOL_PROPERTY
W
SciTegic.value.DoubleValue
-53.183

@<SCITEGIC>MOL_PROPERTY
W(PB)
SciTegic.value.DoubleValue
-55.533

@<SCITEGIC>MOL_PROPERTY
W(SA)
SciTegic.value.DoubleValue
2.350

@<SCITEGIC>MOL_PROPERTY
Valence
SciTegic.value.DoubleValue
2.459

@<SCITEGIC>MOL_PROPERTY
Coulomb
SciTegic.value.DoubleValue
44.900

@<SCITEGIC>MOL_PROPERTY
VdW
SciTegic.value.DoubleValue
0.643

@<SCITEGIC>MOL_PROPERTY
VdW6
SciTegic.value.DoubleValue
-6.362

@<SCITEGIC>MOL_PROPERTY
VdW12
SciTegic.value.DoubleValue
7.005

@<SCITEGIC>MOL_PROPERTY
Bond
SciTegic.value.DoubleValue
0.151

@<SCITEGIC>MOL_PROPERTY
Angle
SciTegic.value.DoubleValue
0.519

@<SCITEGIC>MOL_PROPERTY
Pdih
SciTegic.value.DoubleValue
1.789

@<SCITEGIC>MOL_PROPERTY
Idih
SciTegic.value.DoubleValue
0.000

@<SCITEGIC>MOL_PROPERTY
Tether
SciTegic.value.DoubleValue
0.000

@<TRIPOS>MOLECULE
guest-s14_vm2.mol2 : vm2 ligand conformer 5
          26          25           1
SMALL
USER_CHARGES
 
@<TRIPOS>ATOM
       1    C1      20.370986   19.250981   19.009884 C.3        1 MOL1        -0.2400
       2    H1      19.415092   18.829495   18.672452 H          1 MOL1         0.0971
       3    H2      20.292998   20.345522   18.976114 H          1 MOL1         0.0971
       4    H3      21.145177   18.946073   18.293850 H          1 MOL1         0.0971
       5    C2      20.721231   18.763368   20.431740 C.3        1 MOL1        -0.1385
       6    H4      21.696936   19.173645   20.727698 H          1 MOL1         0.0960
       7    H5      20.825762   17.669306   20.426483 H          1 MOL1         0.0960
       8    C3      19.646441   19.179700   21.460264 C.3        1 MOL1        -0.1409
       9    H6      19.544037   20.273759   21.460463 H          1 MOL1         0.0960
      10    H7      18.672783   18.769471   21.158378 H          1 MOL1         0.0960
      11    C4      19.993511   18.693099   22.885443 C.3        1 MOL1        -0.1409
      12    H8      20.970053   19.101698   23.177806 H          1 MOL1         0.0960
      13    H9      20.093103   17.598797   22.884376 H          1 MOL1         0.0960
      14    C5      18.915622   19.112720   23.913592 C.3        1 MOL1        -0.1409
      15    H10     18.836303   20.208421   23.941571 H          1 MOL1         0.0960
      16    H11     17.936527   18.738828   23.583422 H          1 MOL1         0.0960
      17    C6      19.195141   18.579449   25.338397 C.3        1 MOL1        -0.1450
      18    H12     19.249958   17.482829   25.317904 H          1 MOL1         0.0960
      19    H13     18.349339   18.839875   25.988587 H          1 MOL1         0.0960
      20    C7      20.490395   19.151532   25.944534 C.3        1 MOL1         0.0172
      21    H14     21.346502   18.861531   25.329999 H          1 MOL1         0.0934
      22    H15     20.435558   20.243284   25.966057 H          1 MOL1         0.0934
      23    N1      20.747674   18.668150   27.357147 N.4        1 MOL1        -0.5956
      24    H16     21.613884   19.060249   27.742294 H          1 MOL1         0.3624
      25    H17     20.836323   17.647677   27.401693 H          1 MOL1         0.3624
      26    H18     19.990563   18.933400   27.995620 H          1 MOL1         0.3624
@<TRIPOS>BOND
    1     1     2    1
    2     1     3    1
    3     1     4    1
    4     1     5    1
    5     5     6    1
    6     5     7    1
    7     5     8    1
    8     8     9    1
    9     8    10    1
   10     8    11    1
   11    11    12    1
   12    11    13    1
   13    11    14    1
   14    14    15    1
   15    14    16    1
   16    14    17    1
   17    17    18    1
   18    17    19    1
   19    17    20    1
   20    20    21    1
   21    20    22    1
   22    20    23    1
   23    23    24    1
   24    23    25    1
   25    23    26    1
@<TRIPOS>SUBSTRUCTURE
       1 MOL1            1 RESIDUE      1      MOL     
@<SCITEGIC>MOL_PROPERTY
VM2 Rank
SciTegic.value.IntegerValue
5

@<SCITEGIC>MOL_PROPERTY
Conf_Id
SciTegic.value.IntegerValue
934

@<SCITEGIC>MOL_PROPERTY
Probability
SciTegic.value.DoubleValue
3.29

@<SCITEGIC>MOL_PROPERTY
Sum Probability
SciTegic.value.DoubleValue
23.37

@<SCITEGIC>MOL_PROPERTY
Delta G
SciTegic.value.DoubleValue
0.473

@<SCITEGIC>MOL_PROPERTY
G
SciTegic.value.DoubleValue
48.734

@<SCITEGIC>MOL_PROPERTY
E
SciTegic.value.DoubleValue
16.283

@<SCITEGIC>MOL_PROPERTY
-TS
SciTegic.value.DoubleValue
32.451

@<SCITEGIC>MOL_PROPERTY
U+W
SciTegic.value.DoubleValue
-5.178

@<SCITEGIC>MOL_PROPERTY
U
SciTegic.value.DoubleValue
48.002

@<SCITEGIC>MOL_PROPERTY
W
SciTegic.value.DoubleValue
-53.180

@<SCITEGIC>MOL_PROPERTY
W(PB)
SciTegic.value.DoubleValue
-55.522

@<SCITEGIC>MOL_PROPERTY
W(SA)
SciTegic.value.DoubleValue
2.341

@<SCITEGIC>MOL_PROPERTY
Valence
SciTegic.value.DoubleValue
2.459

@<SCITEGIC>MOL_PROPERTY
Coulomb
SciTegic.value.DoubleValue
44.900

@<SCITEGIC>MOL_PROPERTY
VdW
SciTegic.value.DoubleValue
0.643

@<SCITEGIC>MOL_PROPERTY
VdW6
SciTegic.value.DoubleValue
-6.362

@<SCITEGIC>MOL_PROPERTY
VdW12
SciTegic.value.DoubleValue
7.005

@<SCITEGIC>MOL_PROPERTY
Bond
SciTegic.value.DoubleValue
0.151

@<SCITEGIC>MOL_PROPERTY
Angle
SciTegic.value.DoubleValue
0.519

@<SCITEGIC>MOL_PROPERTY
Pdih
SciTegic.value.DoubleValue
1.789

@<SCITEGIC>MOL_PROPERTY
Idih
SciTegic.value.DoubleValue
0.000

@<SCITEGIC>MOL_PROPERTY
Tether
SciTegic.value.DoubleValue
0.000

@<TRIPOS>MOLECULE
guest-s14_vm2.mol2 : vm2 ligand conformer 6
          26          25           1
SMALL
USER_CHARGES
 
@<TRIPOS>ATOM
       1    C1      19.444777   18.162181   19.524233 C.3        1 MOL1        -0.2400
       2    H1      18.448866   18.623781   19.513707 H          1 MOL1         0.0971
       3    H2      19.660223   17.805711   18.508629 H          1 MOL1         0.0971
       4    H3      19.410441   17.284259   20.181130 H          1 MOL1         0.0971
       5    C2      20.520905   19.172602   19.982246 C.3        1 MOL1        -0.1385
       6    H4      20.601273   19.969482   19.229700 H          1 MOL1         0.0960
       7    H5      21.502254   18.678881   20.013029 H          1 MOL1         0.0960
       8    C3      20.215427   19.816386   21.356269 C.3        1 MOL1        -0.1409
       9    H6      20.965078   20.595963   21.550208 H          1 MOL1         0.0960
      10    H7      19.243073   20.326316   21.314257 H          1 MOL1         0.0960
      11    C4      20.224207   18.804448   22.527109 C.3        1 MOL1        -0.1409
      12    H8      21.178478   18.259877   22.533914 H          1 MOL1         0.0960
      13    H9      19.431758   18.058492   22.382179 H          1 MOL1         0.0960
      14    C5      20.018573   19.503000   23.890371 C.3        1 MOL1        -0.1409
      15    H10     20.811844   20.247507   24.045850 H          1 MOL1         0.0960
      16    H11     19.065812   20.050690   23.882326 H          1 MOL1         0.0960
      17    C6      20.023048   18.495003   25.060706 C.3        1 MOL1        -0.1450
      18    H12     20.975777   17.948921   25.074899 H          1 MOL1         0.0960
      19    H13     19.227790   17.752263   24.912373 H          1 MOL1         0.0960
      20    C7      19.817853   19.200970   26.412570 C.3        1 MOL1         0.0172
      21    H14     20.616821   19.930118   26.572156 H          1 MOL1         0.0934
      22    H15     18.862481   19.732693   26.408965 H          1 MOL1         0.0934
      23    N1      19.816210   18.244410   27.587497 N.4        1 MOL1        -0.5956
      24    H16     19.678180   18.734942   28.477884 H          1 MOL1         0.3624
      25    H17     20.700487   17.731091   27.663728 H          1 MOL1         0.3624
      26    H18     19.068103   17.547366   27.511883 H          1 MOL1         0.3624
@<TRIPOS>BOND
    1     1     2    1
    2     1     3    1
    3     1     4    1
    4     1     5    1
    5     5     6    1
    6     5     7    1
    7     5     8    1
    8     8     9    1
    9     8    10    1
   10     8    11    1
   11    11    12    1
   12    11    13    1
   13    11    14    1
   14    14    15    1
   15    14    16    1
   16    14    17    1
   17    17    18    1
   18    17    19    1
   19    17    20    1
   20    20    21    1
   21    20    22    1
   22    20    23    1
   23    23    24    1
   24    23    25    1
   25    23    26    1
@<TRIPOS>SUBSTRUCTURE
       1 MOL1            1 RESIDUE      1      MOL     
@<SCITEGIC>MOL_PROPERTY
VM2 Rank
SciTegic.value.IntegerValue
6

@<SCITEGIC>MOL_PROPERTY
Conf_Id
SciTegic.value.IntegerValue
1030

@<SCITEGIC>MOL_PROPERTY
Probability
SciTegic.value.DoubleValue
2.72

@<SCITEGIC>MOL_PROPERTY
Sum Probability
SciTegic.value.DoubleValue
26.09

@<SCITEGIC>MOL_PROPERTY
Delta G
SciTegic.value.DoubleValue
0.588

@<SCITEGIC>MOL_PROPERTY
G
SciTegic.value.DoubleValue
48.849

@<SCITEGIC>MOL_PROPERTY
E
SciTegic.value.DoubleValue
16.386

@<SCITEGIC>MOL_PROPERTY
-TS
SciTegic.value.DoubleValue
32.463

@<SCITEGIC>MOL_PROPERTY
U+W
SciTegic.value.DoubleValue
-5.076

@<SCITEGIC>MOL_PROPERTY
U
SciTegic.value.DoubleValue
47.845

@<SCITEGIC>MOL_PROPERTY
W
SciTegic.value.DoubleValue
-52.921

@<SCITEGIC>MOL_PROPERTY
W(PB)
SciTegic.value.DoubleValue
-55.283

@<SCITEGIC>MOL_PROPERTY
W(SA)
SciTegic.value.DoubleValue
2.362

@<SCITEGIC>MOL_PROPERTY
Valence
SciTegic.value.DoubleValue
2.661

@<SCITEGIC>MOL_PROPERTY
Coulomb
SciTegic.value.DoubleValue
44.462

@<SCITEGIC>MOL_PROPERTY
VdW
SciTegic.value.DoubleValue
0.722

@<SCITEGIC>MOL_PROPERTY
VdW6
SciTegic.value.DoubleValue
-6.379

@<SCITEGIC>MOL_PROPERTY
VdW12
SciTegic.value.DoubleValue
7.102

@<SCITEGIC>MOL_PROPERTY
Bond
SciTegic.value.DoubleValue
0.164

@<SCITEGIC>MOL_PROPERTY
Angle
SciTegic.value.DoubleValue
0.634

@<SCITEGIC>MOL_PROPERTY
Pdih
SciTegic.value.DoubleValue
1.863

@<SCITEGIC>MOL_PROPERTY
Idih
SciTegic.value.DoubleValue
0.000

@<SCITEGIC>MOL_PROPERTY
Tether
SciTegic.value.DoubleValue
0.000

@<TRIPOS>MOLECULE
guest-s14_vm2.mol2 : vm2 ligand conformer 7
          26          25           1
SMALL
USER_CHARGES
 
@<TRIPOS>ATOM
       1    C1      21.108085   19.258800   19.579843 C.3        1 MOL1        -0.2400
       2    H1      21.076010   20.355853   19.601555 H          1 MOL1         0.0971
       3    H2      21.897263   18.923798   20.264249 H          1 MOL1         0.0971
       4    H3      21.398077   18.951500   18.566724 H          1 MOL1         0.0971
       5    C2      19.735942   18.655065   19.956019 C.3        1 MOL1        -0.1385
       6    H4      19.802314   17.558092   19.956196 H          1 MOL1         0.0960
       7    H5      19.007557   18.918746   19.176449 H          1 MOL1         0.0960
       8    C3      19.200758   19.147365   21.322378 C.3        1 MOL1        -0.1409
       9    H6      19.116298   20.242799   21.310019 H          1 MOL1         0.0960
      10    H7      18.181278   18.760320   21.457250 H          1 MOL1         0.0960
      11    C4      20.072284   18.704348   22.522020 C.3        1 MOL1        -0.1409
      12    H8      21.075396   19.142497   22.437057 H          1 MOL1         0.0960
      13    H9      20.197340   17.612944   22.501117 H          1 MOL1         0.0960
      14    C5      19.448052   19.126831   23.871309 C.3        1 MOL1        -0.1409
      15    H10     19.319599   20.218116   23.890808 H          1 MOL1         0.0960
      16    H11     18.445453   18.687038   23.966814 H          1 MOL1         0.0960
      17    C6      20.317673   18.689343   25.070525 C.3        1 MOL1        -0.1450
      18    H12     21.319059   19.131543   24.982271 H          1 MOL1         0.0960
      19    H13     20.444484   17.598546   25.057045 H          1 MOL1         0.0960
      20    C7      19.686868   19.114536   26.408181 C.3        1 MOL1         0.0172
      21    H14     19.573846   20.201777   26.432822 H          1 MOL1         0.0934
      22    H15     18.695958   18.663273   26.507855 H          1 MOL1         0.0934
      23    N1      20.511338   18.702712   27.610724 N.4        1 MOL1        -0.5956
      24    H16     20.073498   18.995468   28.491095 H          1 MOL1         0.3624
      25    H17     21.448872   19.117335   27.591549 H          1 MOL1         0.3624
      26    H18     20.631989   17.685787   27.661336 H          1 MOL1         0.3624
@<TRIPOS>BOND
    1     1     2    1
    2     1     3    1
    3     1     4    1
    4     1     5    1
    5     5     6    1
    6     5     7    1
    7     5     8    1
    8     8     9    1
    9     8    10    1
   10     8    11    1
   11    11    12    1
   12    11    13    1
   13    11    14    1
   14    14    15    1
   15    14    16    1
   16    14    17    1
   17    17    18    1
   18    17    19    1
   19    17    20    1
   20    20    21    1
   21    20    22    1
   22    20    23    1
   23    23    24    1
   24    23    25    1
   25    23    26    1
@<TRIPOS>SUBSTRUCTURE
       1 MOL1            1 RESIDUE      1      MOL     
@<SCITEGIC>MOL_PROPERTY
VM2 Rank
SciTegic.value.IntegerValue
7

@<SCITEGIC>MOL_PROPERTY
Conf_Id
SciTegic.value.IntegerValue
999

@<SCITEGIC>MOL_PROPERTY
Probability
SciTegic.value.DoubleValue
2.54

@<SCITEGIC>MOL_PROPERTY
Sum Probability
SciTegic.value.DoubleValue
28.62

@<SCITEGIC>MOL_PROPERTY
Delta G
SciTegic.value.DoubleValue
0.629

@<SCITEGIC>MOL_PROPERTY
G
SciTegic.value.DoubleValue
48.890

@<SCITEGIC>MOL_PROPERTY
E
SciTegic.value.DoubleValue
16.427

@<SCITEGIC>MOL_PROPERTY
-TS
SciTegic.value.DoubleValue
32.463

@<SCITEGIC>MOL_PROPERTY
U+W
SciTegic.value.DoubleValue
-5.035

@<SCITEGIC>MOL_PROPERTY
U
SciTegic.value.DoubleValue
47.845

@<SCITEGIC>MOL_PROPERTY
W
SciTegic.value.DoubleValue
-52.880

@<SCITEGIC>MOL_PROPERTY
W(PB)
SciTegic.value.DoubleValue
-55.232

@<SCITEGIC>MOL_PROPERTY
W(SA)
SciTegic.value.DoubleValue
2.352

@<SCITEGIC>MOL_PROPERTY
Valence
SciTegic.value.DoubleValue
2.661

@<SCITEGIC>MOL_PROPERTY
Coulomb
SciTegic.value.DoubleValue
44.462

@<SCITEGIC>MOL_PROPERTY
VdW
SciTegic.value.DoubleValue
0.723

@<SCITEGIC>MOL_PROPERTY
VdW6
SciTegic.value.DoubleValue
-6.379

@<SCITEGIC>MOL_PROPERTY
VdW12
SciTegic.value.DoubleValue
7.102

@<SCITEGIC>MOL_PROPERTY
Bond
SciTegic.value.DoubleValue
0.164

@<SCITEGIC>MOL_PROPERTY
Angle
SciTegic.value.DoubleValue
0.634

@<SCITEGIC>MOL_PROPERTY
Pdih
SciTegic.value.DoubleValue
1.863

@<SCITEGIC>MOL_PROPERTY
Idih
SciTegic.value.DoubleValue
0.000

@<SCITEGIC>MOL_PROPERTY
Tether
SciTegic.value.DoubleValue
0.000

@<TRIPOS>MOLECULE
guest-s14_vm2.mol2 : vm2 ligand conformer 8
          26          25           1
SMALL
USER_CHARGES
 
@<TRIPOS>ATOM
       1    C1      20.186268   19.782784   19.189226 C.3        1 MOL1        -0.2400
       2    H1      20.215487   18.901436   18.535315 H          1 MOL1         0.0971
       3    H2      19.186620   20.230528   19.115252 H          1 MOL1         0.0971
       4    H3      20.911364   20.511619   18.804421 H          1 MOL1         0.0971
       5    C2      20.517086   19.403176   20.648249 C.3        1 MOL1        -0.1385
       6    H4      20.518446   20.314117   21.261298 H          1 MOL1         0.0960
       7    H5      21.532652   18.985814   20.694545 H          1 MOL1         0.0960
       8    C3      19.504992   18.379153   21.214249 C.3        1 MOL1        -0.1409
       9    H6      18.497202   18.816883   21.216813 H          1 MOL1         0.0960
      10    H7      19.461974   17.511315   20.541674 H          1 MOL1         0.0960
      11    C4      19.857743   17.879606   22.636900 C.3        1 MOL1        -0.1409
      12    H8      20.859473   17.428134   22.630004 H          1 MOL1         0.0960
      13    H9      19.159004   17.075242   22.905517 H          1 MOL1         0.0960
      14    C5      19.790484   18.986771   23.716323 C.3        1 MOL1        -0.1409
      15    H10     20.537299   19.763401   23.505066 H          1 MOL1         0.0960
      16    H11     18.805523   19.472928   23.683537 H          1 MOL1         0.0960
      17    C6      20.038410   18.422442   25.132638 C.3        1 MOL1        -0.1450
      18    H12     21.022673   17.936688   25.169875 H          1 MOL1         0.0960
      19    H13     19.289699   17.652089   25.360824 H          1 MOL1         0.0960
      20    C7      19.973582   19.529775   26.199268 C.3        1 MOL1         0.0172
      21    H14     20.728619   20.291248   25.985851 H          1 MOL1         0.0934
      22    H15     18.989317   20.005377   26.176835 H          1 MOL1         0.0934
      23    N1      20.212433   19.015294   27.604148 N.4        1 MOL1        -0.5956
      24    H16     20.164901   19.768594   28.298938 H          1 MOL1         0.3624
      25    H17     21.135409   18.579143   27.699729 H          1 MOL1         0.3624
      26    H18     19.517051   18.313150   27.877439 H          1 MOL1         0.3624
@<TRIPOS>BOND
    1     1     2    1
    2     1     3    1
    3     1     4    1
    4     1     5    1
    5     5     6    1
    6     5     7    1
    7     5     8    1
    8     8     9    1
    9     8    10    1
   10     8    11    1
   11    11    12    1
   12    11    13    1
   13    11    14    1
   14    14    15    1
   15    14    16    1
   16    14    17    1
   17    17    18    1
   18    17    19    1
   19    17    20    1
   20    20    21    1
   21    20    22    1
   22    20    23    1
   23    23    24    1
   24    23    25    1
   25    23    26    1
@<TRIPOS>SUBSTRUCTURE
       1 MOL1            1 RESIDUE      1      MOL     
@<SCITEGIC>MOL_PROPERTY
VM2 Rank
SciTegic.value.IntegerValue
8

@<SCITEGIC>MOL_PROPERTY
Conf_Id
SciTegic.value.IntegerValue
1512

@<SCITEGIC>MOL_PROPERTY
Probability
SciTegic.value.DoubleValue
2.39

@<SCITEGIC>MOL_PROPERTY
Sum Probability
SciTegic.value.DoubleValue
31.02

@<SCITEGIC>MOL_PROPERTY
Delta G
SciTegic.value.DoubleValue
0.663

@<SCITEGIC>MOL_PROPERTY
G
SciTegic.value.DoubleValue
48.924

@<SCITEGIC>MOL_PROPERTY
E
SciTegic.value.DoubleValue
16.474

@<SCITEGIC>MOL_PROPERTY
-TS
SciTegic.value.DoubleValue
32.451

@<SCITEGIC>MOL_PROPERTY
U+W
SciTegic.value.DoubleValue
-4.988

@<SCITEGIC>MOL_PROPERTY
U
SciTegic.value.DoubleValue
48.035

@<SCITEGIC>MOL_PROPERTY
W
SciTegic.value.DoubleValue
-53.023

@<SCITEGIC>MOL_PROPERTY
W(PB)
SciTegic.value.DoubleValue
-55.380

@<SCITEGIC>MOL_PROPERTY
W(SA)
SciTegic.value.DoubleValue
2.357

@<SCITEGIC>MOL_PROPERTY
Valence
SciTegic.value.DoubleValue
2.701

@<SCITEGIC>MOL_PROPERTY
Coulomb
SciTegic.value.DoubleValue
44.622

@<SCITEGIC>MOL_PROPERTY
VdW
SciTegic.value.DoubleValue
0.712

@<SCITEGIC>MOL_PROPERTY
VdW6
SciTegic.value.DoubleValue
-6.418

@<SCITEGIC>MOL_PROPERTY
VdW12
SciTegic.value.DoubleValue
7.129

@<SCITEGIC>MOL_PROPERTY
Bond
SciTegic.value.DoubleValue
0.168

@<SCITEGIC>MOL_PROPERTY
Angle
SciTegic.value.DoubleValue
0.659

@<SCITEGIC>MOL_PROPERTY
Pdih
SciTegic.value.DoubleValue
1.875

@<SCITEGIC>MOL_PROPERTY
Idih
SciTegic.value.DoubleValue
0.000

@<SCITEGIC>MOL_PROPERTY
Tether
SciTegic.value.DoubleValue
0.000

@<TRIPOS>MOLECULE
guest-s14_vm2.mol2 : vm2 ligand conformer 9
          26          25           1
SMALL
USER_CHARGES
 
@<TRIPOS>ATOM
       1    C1      20.845159   19.869588   19.433553 C.3        1 MOL1        -0.2400
       2    H1      21.810187   20.173362   19.859776 H          1 MOL1         0.0971
       3    H2      21.019453   19.552467   18.397165 H          1 MOL1         0.0971
       4    H3      20.189120   20.749553   19.410885 H          1 MOL1         0.0971
       5    C2      20.211375   18.726173   20.254001 C.3        1 MOL1        -0.1385
       6    H4      20.874251   17.849822   20.230783 H          1 MOL1         0.0960
       7    H5      19.266050   18.421196   19.783622 H          1 MOL1         0.0960
       8    C3      19.954467   19.146694   21.718120 C.3        1 MOL1        -0.1409
       9    H6      20.904215   19.457215   22.172756 H          1 MOL1         0.0960
      10    H7      19.290021   20.021576   21.736092 H          1 MOL1         0.0960
      11    C4      19.322527   17.999408   22.542589 C.3        1 MOL1        -0.1409
      12    H8      20.009132   17.142058   22.571905 H          1 MOL1         0.0960
      13    H9      18.414879   17.649913   22.031280 H          1 MOL1         0.0960
      14    C5      18.943531   18.410053   23.986801 C.3        1 MOL1        -0.1409
      15    H10     18.243303   19.256455   23.957391 H          1 MOL1         0.0960
      16    H11     18.400354   17.577038   24.454522 H          1 MOL1         0.0960
      17    C6      20.162218   18.771849   24.867986 C.3        1 MOL1        -0.1450
      18    H12     20.672423   19.655182   24.463860 H          1 MOL1         0.0960
      19    H13     20.885402   17.945551   24.856323 H          1 MOL1         0.0960
      20    C7      19.738088   19.059182   26.319063 C.3        1 MOL1         0.0172
      21    H14     19.030052   19.892138   26.337496 H          1 MOL1         0.0934
      22    H15     19.244589   18.178795   26.739583 H          1 MOL1         0.0934
      23    N1      20.903637   19.416054   27.218887 N.4        1 MOL1        -0.5956
      24    H16     20.598998   19.603043   28.180490 H          1 MOL1         0.3624
      25    H17     21.395202   20.254838   26.893313 H          1 MOL1         0.3624
      26    H18     21.594897   18.660337   27.266693 H          1 MOL1         0.3624
@<TRIPOS>BOND
    1     1     2    1
    2     1     3    1
    3     1     4    1
    4     1     5    1
    5     5     6    1
    6     5     7    1
    7     5     8    1
    8     8     9    1
    9     8    10    1
   10     8    11    1
   11    11    12    1
   12    11    13    1
   13    11    14    1
   14    14    15    1
   15    14    16    1
   16    14    17    1
   17    17    18    1
   18    17    19    1
   19    17    20    1
   20    20    21    1
   21    20    22    1
   22    20    23    1
   23    23    24    1
   24    23    25    1
   25    23    26    1
@<TRIPOS>SUBSTRUCTURE
       1 MOL1            1 RESIDUE      1      MOL     
@<SCITEGIC>MOL_PROPERTY
VM2 Rank
SciTegic.value.IntegerValue
9

@<SCITEGIC>MOL_PROPERTY
Conf_Id
SciTegic.value.IntegerValue
611

@<SCITEGIC>MOL_PROPERTY
Probability
SciTegic.value.DoubleValue
2.39

@<SCITEGIC>MOL_PROPERTY
Sum Probability
SciTegic.value.DoubleValue
33.41

@<SCITEGIC>MOL_PROPERTY
Delta G
SciTegic.value.DoubleValue
0.664

@<SCITEGIC>MOL_PROPERTY
G
SciTegic.value.DoubleValue
48.926

@<SCITEGIC>MOL_PROPERTY
E
SciTegic.value.DoubleValue
16.473

@<SCITEGIC>MOL_PROPERTY
-TS
SciTegic.value.DoubleValue
32.453

@<SCITEGIC>MOL_PROPERTY
U+W
SciTegic.value.DoubleValue
-4.989

@<SCITEGIC>MOL_PROPERTY
U
SciTegic.value.DoubleValue
48.214

@<SCITEGIC>MOL_PROPERTY
W
SciTegic.value.DoubleValue
-53.203

@<SCITEGIC>MOL_PROPERTY
W(PB)
SciTegic.value.DoubleValue
-55.543

@<SCITEGIC>MOL_PROPERTY
W(SA)
SciTegic.value.DoubleValue
2.340

@<SCITEGIC>MOL_PROPERTY
Valence
SciTegic.value.DoubleValue
2.697

@<SCITEGIC>MOL_PROPERTY
Coulomb
SciTegic.value.DoubleValue
44.818

@<SCITEGIC>MOL_PROPERTY
VdW
SciTegic.value.DoubleValue
0.698

@<SCITEGIC>MOL_PROPERTY
VdW6
SciTegic.value.DoubleValue
-6.437

@<SCITEGIC>MOL_PROPERTY
VdW12
SciTegic.value.DoubleValue
7.136

@<SCITEGIC>MOL_PROPERTY
Bond
SciTegic.value.DoubleValue
0.168

@<SCITEGIC>MOL_PROPERTY
Angle
SciTegic.value.DoubleValue
0.657

@<SCITEGIC>MOL_PROPERTY
Pdih
SciTegic.value.DoubleValue
1.873

@<SCITEGIC>MOL_PROPERTY
Idih
SciTegic.value.DoubleValue
0.000

@<SCITEGIC>MOL_PROPERTY
Tether
SciTegic.value.DoubleValue
0.000

@<TRIPOS>MOLECULE
guest-s14_vm2.mol2 : vm2 ligand conformer 10
          26          25           1
SMALL
USER_CHARGES
 
@<TRIPOS>ATOM
       1    C1      19.343859   19.227165   19.161107 C.3        1 MOL1        -0.2400
       2    H1      20.172436   18.873255   18.533862 H          1 MOL1         0.0971
       3    H2      18.407712   18.860072   18.720756 H          1 MOL1         0.0971
       4    H3      19.328260   20.324125   19.120137 H          1 MOL1         0.0971
       5    C2      19.494882   18.728780   20.614067 C.3        1 MOL1        -0.1385
       6    H4      19.477581   17.630020   20.625744 H          1 MOL1         0.0960
       7    H5      18.629037   19.067555   21.198180 H          1 MOL1         0.0960
       8    C3      20.806405   19.237612   21.257737 C.3        1 MOL1        -0.1409
       9    H6      21.651779   18.955821   20.614863 H          1 MOL1         0.0960
      10    H7      20.799719   20.335752   21.293750 H          1 MOL1         0.0960
      11    C4      21.060618   18.673092   22.677107 C.3        1 MOL1        -0.1409
      12    H8      22.061226   18.989763   23.002518 H          1 MOL1         0.0960
      13    H9      21.082505   17.575235   22.637488 H          1 MOL1         0.0960
      14    C5      20.019753   19.138019   23.723976 C.3        1 MOL1        -0.1409
      15    H10     19.961296   20.235356   23.722141 H          1 MOL1         0.0960
      16    H11     19.023073   18.764524   23.454449 H          1 MOL1         0.0960
      17    C6      20.374908   18.644440   25.143879 C.3        1 MOL1        -0.1450
      18    H12     21.365780   19.021635   25.430199 H          1 MOL1         0.0960
      19    H13     20.433068   17.547767   25.150172 H          1 MOL1         0.0960
      20    C7      19.333549   19.107585   26.177880 C.3        1 MOL1         0.0172
      21    H14     19.284039   20.199808   26.186697 H          1 MOL1         0.0934
      22    H15     18.347660   18.720640   25.906285 H          1 MOL1         0.0934
      23    N1      19.647026   18.642307   27.585246 N.4        1 MOL1        -0.5956
      24    H16     18.941403   18.961484   28.258058 H          1 MOL1         0.3624
      25    H17     20.552227   18.995980   27.912016 H          1 MOL1         0.3624
      26    H18     19.680937   17.619683   27.651107 H          1 MOL1         0.3624
@<TRIPOS>BOND
    1     1     2    1
    2     1     3    1
    3     1     4    1
    4     1     5    1
    5     5     6    1
    6     5     7    1
    7     5     8    1
    8     8     9    1
    9     8    10    1
   10     8    11    1
   11    11    12    1
   12    11    13    1
   13    11    14    1
   14    14    15    1
   15    14    16    1
   16    14    17    1
   17    17    18    1
   18    17    19    1
   19    17    20    1
   20    20    21    1
   21    20    22    1
   22    20    23    1
   23    23    24    1
   24    23    25    1
   25    23    26    1
@<TRIPOS>SUBSTRUCTURE
       1 MOL1            1 RESIDUE      1      MOL     
@<SCITEGIC>MOL_PROPERTY
VM2 Rank
SciTegic.value.IntegerValue
10

@<SCITEGIC>MOL_PROPERTY
Conf_Id
SciTegic.value.IntegerValue
613

@<SCITEGIC>MOL_PROPERTY
Probability
SciTegic.value.DoubleValue
2.37

@<SCITEGIC>MOL_PROPERTY
Sum Probability
SciTegic.value.DoubleValue
35.78

@<SCITEGIC>MOL_PROPERTY
Delta G
SciTegic.value.DoubleValue
0.670

@<SCITEGIC>MOL_PROPERTY
G
SciTegic.value.DoubleValue
48.931

@<SCITEGIC>MOL_PROPERTY
E
SciTegic.value.DoubleValue
16.480

@<SCITEGIC>MOL_PROPERTY
-TS
SciTegic.value.DoubleValue
32.451

@<SCITEGIC>MOL_PROPERTY
U+W
SciTegic.value.DoubleValue
-4.982

@<SCITEGIC>MOL_PROPERTY
U
SciTegic.value.DoubleValue
48.035

@<SCITEGIC>MOL_PROPERTY
W
SciTegic.value.DoubleValue
-53.017

@<SCITEGIC>MOL_PROPERTY
W(PB)
SciTegic.value.DoubleValue
-55.374

@<SCITEGIC>MOL_PROPERTY
W(SA)
SciTegic.value.DoubleValue
2.357

@<SCITEGIC>MOL_PROPERTY
Valence
SciTegic.value.DoubleValue
2.701

@<SCITEGIC>MOL_PROPERTY
Coulomb
SciTegic.value.DoubleValue
44.622

@<SCITEGIC>MOL_PROPERTY
VdW
SciTegic.value.DoubleValue
0.712

@<SCITEGIC>MOL_PROPERTY
VdW6
SciTegic.value.DoubleValue
-6.418

@<SCITEGIC>MOL_PROPERTY
VdW12
SciTegic.value.DoubleValue
7.129

@<SCITEGIC>MOL_PROPERTY
Bond
SciTegic.value.DoubleValue
0.168

@<SCITEGIC>MOL_PROPERTY
Angle
SciTegic.value.DoubleValue
0.659

@<SCITEGIC>MOL_PROPERTY
Pdih
SciTegic.value.DoubleValue
1.875

@<SCITEGIC>MOL_PROPERTY
Idih
SciTegic.value.DoubleValue
0.000

@<SCITEGIC>MOL_PROPERTY
Tether
SciTegic.value.DoubleValue
0.000

@<TRIPOS>MOLECULE
guest-s14_vm2.mol2 : vm2 ligand conformer 11
          26          25           1
SMALL
USER_CHARGES
 
@<TRIPOS>ATOM
       1    C1      18.994002   18.648686   19.371788 C.3        1 MOL1        -0.2400
       2    H1      18.316453   17.868758   19.743091 H          1 MOL1         0.0971
       3    H2      18.444156   19.598712   19.352826 H          1 MOL1         0.0971
       4    H3      19.265039   18.395569   18.338581 H          1 MOL1         0.0971
       5    C2      20.254974   18.755112   20.255442 C.3        1 MOL1        -0.1385
       6    H4      20.927948   19.517817   19.839156 H          1 MOL1         0.0960
       7    H5      20.800937   17.801637   20.228155 H          1 MOL1         0.0960
       8    C3      19.901532   19.111688   21.716407 C.3        1 MOL1        -0.1409
       9    H6      19.357872   20.066241   21.738582 H          1 MOL1         0.0960
      10    H7      19.222378   18.347645   22.116566 H          1 MOL1         0.0960
      11    C4      21.165142   19.214617   22.604143 C.3        1 MOL1        -0.1409
      12    H8      21.866277   19.926267   22.146572 H          1 MOL1         0.0960
      13    H9      21.681717   18.245118   22.627722 H          1 MOL1         0.0960
      14    C5      20.869635   19.680233   24.051175 C.3        1 MOL1        -0.1409
      15    H10     21.826303   19.836257   24.569020 H          1 MOL1         0.0960
      16    H11     20.368653   20.658027   24.028470 H          1 MOL1         0.0960
      17    C6      20.017651   18.676519   24.863125 C.3        1 MOL1        -0.1450
      18    H12     20.493040   17.686819   24.843132 H          1 MOL1         0.0960
      19    H13     19.024756   18.568692   24.408773 H          1 MOL1         0.0960
      20    C7      19.852810   19.134761   26.322890 C.3        1 MOL1         0.0172
      21    H14     20.835668   19.227830   26.792772 H          1 MOL1         0.0934
      22    H15     19.365106   20.112998   26.348735 H          1 MOL1         0.0934
      23    N1      19.025253   18.177385   27.156031 N.4        1 MOL1        -0.5956
      24    H16     18.076922   18.066819   26.782348 H          1 MOL1         0.3624
      25    H17     18.928473   18.501312   28.124615 H          1 MOL1         0.3624
      26    H18     19.445490   17.242964   27.194671 H          1 MOL1         0.3624
@<TRIPOS>BOND
    1     1     2    1
    2     1     3    1
    3     1     4    1
    4     1     5    1
    5     5     6    1
    6     5     7    1
    7     5     8    1
    8     8     9    1
    9     8    10    1
   10     8    11    1
   11    11    12    1
   12    11    13    1
   13    11    14    1
   14    14    15    1
   15    14    16    1
   16    14    17    1
   17    17    18    1
   18    17    19    1
   19    17    20    1
   20    20    21    1
   21    20    22    1
   22    20    23    1
   23    23    24    1
   24    23    25    1
   25    23    26    1
@<TRIPOS>SUBSTRUCTURE
       1 MOL1            1 RESIDUE      1      MOL     
@<SCITEGIC>MOL_PROPERTY
VM2 Rank
SciTegic.value.IntegerValue
11

@<SCITEGIC>MOL_PROPERTY
Conf_Id
SciTegic.value.IntegerValue
201

@<SCITEGIC>MOL_PROPERTY
Probability
SciTegic.value.DoubleValue
2.31

@<SCITEGIC>MOL_PROPERTY
Sum Probability
SciTegic.value.DoubleValue
38.08

@<SCITEGIC>MOL_PROPERTY
Delta G
SciTegic.value.DoubleValue
0.685

@<SCITEGIC>MOL_PROPERTY
G
SciTegic.value.DoubleValue
48.946

@<SCITEGIC>MOL_PROPERTY
E
SciTegic.value.DoubleValue
16.493

@<SCITEGIC>MOL_PROPERTY
-TS
SciTegic.value.DoubleValue
32.453

@<SCITEGIC>MOL_PROPERTY
U+W
SciTegic.value.DoubleValue
-4.969

@<SCITEGIC>MOL_PROPERTY
U
SciTegic.value.DoubleValue
48.214

@<SCITEGIC>MOL_PROPERTY
W
SciTegic.value.DoubleValue
-53.183

@<SCITEGIC>MOL_PROPERTY
W(PB)
SciTegic.value.DoubleValue
-55.531

@<SCITEGIC>MOL_PROPERTY
W(SA)
SciTegic.value.DoubleValue
2.348

@<SCITEGIC>MOL_PROPERTY
Valence
SciTegic.value.DoubleValue
2.697

@<SCITEGIC>MOL_PROPERTY
Coulomb
SciTegic.value.DoubleValue
44.819

@<SCITEGIC>MOL_PROPERTY
VdW
SciTegic.value.DoubleValue
0.698

@<SCITEGIC>MOL_PROPERTY
VdW6
SciTegic.value.DoubleValue
-6.437

@<SCITEGIC>MOL_PROPERTY
VdW12
SciTegic.value.DoubleValue
7.136

@<SCITEGIC>MOL_PROPERTY
Bond
SciTegic.value.DoubleValue
0.168

@<SCITEGIC>MOL_PROPERTY
Angle
SciTegic.value.DoubleValue
0.657

@<SCITEGIC>MOL_PROPERTY
Pdih
SciTegic.value.DoubleValue
1.872

@<SCITEGIC>MOL_PROPERTY
Idih
SciTegic.value.DoubleValue
0.000

@<SCITEGIC>MOL_PROPERTY
Tether
SciTegic.value.DoubleValue
0.000

@<TRIPOS>MOLECULE
guest-s14_vm2.mol2 : vm2 ligand conformer 12
          26          25           1
SMALL
USER_CHARGES
 
@<TRIPOS>ATOM
       1    C1      20.462431   19.671389   19.522269 C.3        1 MOL1        -0.2400
       2    H1      19.684304   20.445640   19.513368 H          1 MOL1         0.0971
       3    H2      21.314893   20.046621   20.101878 H          1 MOL1         0.0971
       4    H3      20.804200   19.527141   18.489156 H          1 MOL1         0.0971
       5    C2      19.920513   18.345381   20.102624 C.3        1 MOL1        -0.1385
       6    H4      20.725021   17.597154   20.128666 H          1 MOL1         0.0960
       7    H5      19.153721   17.948642   19.422606 H          1 MOL1         0.0960
       8    C3      19.301922   18.498264   21.513187 C.3        1 MOL1        -0.1409
       9    H6      18.484833   19.231998   21.477719 H          1 MOL1         0.0960
      10    H7      18.845178   17.540646   21.798939 H          1 MOL1         0.0960
      11    C4      20.328254   18.911617   22.595230 C.3        1 MOL1        -0.1409
      12    H8      20.742377   19.900519   22.358667 H          1 MOL1         0.0960
      13    H9      21.168865   18.204086   22.592735 H          1 MOL1         0.0960
      14    C5      19.692291   18.952421   24.003256 C.3        1 MOL1        -0.1409
      15    H10     18.851198   19.659690   24.005035 H          1 MOL1         0.0960
      16    H11     19.278265   17.963761   24.242244 H          1 MOL1         0.0960
      17    C6      20.717407   19.368377   25.084701 C.3        1 MOL1        -0.1450
      18    H12     21.152801   20.340722   24.818343 H          1 MOL1         0.0960
      19    H13     21.547805   18.650283   25.112376 H          1 MOL1         0.0960
      20    C7      20.089761   19.483363   26.487267 C.3        1 MOL1         0.0172
      21    H14     20.838289   19.859923   27.189743 H          1 MOL1         0.0934
      22    H15     19.258712   20.193369   26.461590 H          1 MOL1         0.0934
      23    N1      19.568422   18.168188   27.032465 N.4        1 MOL1        -0.5956
      24    H16     19.169395   18.276696   27.971262 H          1 MOL1         0.3624
      25    H17     20.310272   17.464031   27.102104 H          1 MOL1         0.3624
      26    H18     18.832477   17.775501   26.437388 H          1 MOL1         0.3624
@<TRIPOS>BOND
    1     1     2    1
    2     1     3    1
    3     1     4    1
    4     1     5    1
    5     5     6    1
    6     5     7    1
    7     5     8    1
    8     8     9    1
    9     8    10    1
   10     8    11    1
   11    11    12    1
   12    11    13    1
   13    11    14    1
   14    14    15    1
   15    14    16    1
   16    14    17    1
   17    17    18    1
   18    17    19    1
   19    17    20    1
   20    20    21    1
   21    20    22    1
   22    20    23    1
   23    23    24    1
   24    23    25    1
   25    23    26    1
@<TRIPOS>SUBSTRUCTURE
       1 MOL1            1 RESIDUE      1      MOL     
@<SCITEGIC>MOL_PROPERTY
VM2 Rank
SciTegic.value.IntegerValue
12

@<SCITEGIC>MOL_PROPERTY
Conf_Id
SciTegic.value.IntegerValue
1271

@<SCITEGIC>MOL_PROPERTY
Probability
SciTegic.value.DoubleValue
1.82

@<SCITEGIC>MOL_PROPERTY
Sum Probability
SciTegic.value.DoubleValue
39.90

@<SCITEGIC>MOL_PROPERTY
Delta G
SciTegic.value.DoubleValue
0.828

@<SCITEGIC>MOL_PROPERTY
G
SciTegic.value.DoubleValue
49.089

@<SCITEGIC>MOL_PROPERTY
E
SciTegic.value.DoubleValue
16.523

@<SCITEGIC>MOL_PROPERTY
-TS
SciTegic.value.DoubleValue
32.566

@<SCITEGIC>MOL_PROPERTY
U+W
SciTegic.value.DoubleValue
-4.939

@<SCITEGIC>MOL_PROPERTY
U
SciTegic.value.DoubleValue
48.461

@<SCITEGIC>MOL_PROPERTY
W
SciTegic.value.DoubleValue
-53.400

@<SCITEGIC>MOL_PROPERTY
W(PB)
SciTegic.value.DoubleValue
-55.707

@<SCITEGIC>MOL_PROPERTY
W(SA)
SciTegic.value.DoubleValue
2.307

@<SCITEGIC>MOL_PROPERTY
Valence
SciTegic.value.DoubleValue
2.762

@<SCITEGIC>MOL_PROPERTY
Coulomb
SciTegic.value.DoubleValue
44.868

@<SCITEGIC>MOL_PROPERTY
VdW
SciTegic.value.DoubleValue
0.832

@<SCITEGIC>MOL_PROPERTY
VdW6
SciTegic.value.DoubleValue
-6.903

@<SCITEGIC>MOL_PROPERTY
VdW12
SciTegic.value.DoubleValue
7.735

@<SCITEGIC>MOL_PROPERTY
Bond
SciTegic.value.DoubleValue
0.184

@<SCITEGIC>MOL_PROPERTY
Angle
SciTegic.value.DoubleValue
0.674

@<SCITEGIC>MOL_PROPERTY
Pdih
SciTegic.value.DoubleValue
1.903

@<SCITEGIC>MOL_PROPERTY
Idih
SciTegic.value.DoubleValue
0.000

@<SCITEGIC>MOL_PROPERTY
Tether
SciTegic.value.DoubleValue
0.000

@<TRIPOS>MOLECULE
guest-s14_vm2.mol2 : vm2 ligand conformer 13
          26          25           1
SMALL
USER_CHARGES
 
@<TRIPOS>ATOM
       1    C1      20.561308   19.387839   19.212429 C.3        1 MOL1        -0.2400
       2    H1      19.532665   19.482878   18.840805 H          1 MOL1         0.0971
       3    H2      20.977485   20.397051   19.328718 H          1 MOL1         0.0971
       4    H3      21.149711   18.866945   18.445947 H          1 MOL1         0.0971
       5    C2      20.599541   18.614727   20.547697 C.3        1 MOL1        -0.1385
       6    H4      21.642685   18.506345   20.876358 H          1 MOL1         0.0960
       7    H5      20.208992   17.599229   20.392276 H          1 MOL1         0.0960
       8    C3      19.778099   19.327138   21.644971 C.3        1 MOL1        -0.1409
       9    H6      20.170750   20.342332   21.795276 H          1 MOL1         0.0960
      10    H7      18.737059   19.435415   21.310406 H          1 MOL1         0.0960
      11    C4      19.813680   18.555646   22.983535 C.3        1 MOL1        -0.1409
      12    H8      20.857035   18.444870   23.307633 H          1 MOL1         0.0960
      13    H9      19.417655   17.541890   22.832437 H          1 MOL1         0.0960
      14    C5      18.991555   19.272512   24.081276 C.3        1 MOL1        -0.1409
      15    H10     19.398743   20.277790   24.253639 H          1 MOL1         0.0960
      16    H11     17.962862   19.417670   23.723399 H          1 MOL1         0.0960
      17    C6      18.942002   18.487678   25.416216 C.3        1 MOL1        -0.1450
      18    H12     18.453326   17.518726   25.248310 H          1 MOL1         0.0960
      19    H13     18.309614   19.029120   26.132273 H          1 MOL1         0.0960
      20    C7      20.325349   18.240259   26.051541 C.3        1 MOL1         0.0172
      21    H14     20.203966   17.660878   26.970829 H          1 MOL1         0.0934
      22    H15     20.949318   17.661243   25.365945 H          1 MOL1         0.0934
      23    N1      21.069465   19.513199   26.403335 N.4        1 MOL1        -0.5956
      24    H16     20.544388   20.088867   27.069534 H          1 MOL1         0.3624
      25    H17     21.242971   20.090157   25.574474 H          1 MOL1         0.3624
      26    H18     21.981072   19.316309   26.830406 H          1 MOL1         0.3624
@<TRIPOS>BOND
    1     1     2    1
    2     1     3    1
    3     1     4    1
    4     1     5    1
    5     5     6    1
    6     5     7    1
    7     5     8    1
    8     8     9    1
    9     8    10    1
   10     8    11    1
   11    11    12    1
   12    11    13    1
   13    11    14    1
   14    14    15    1
   15    14    16    1
   16    14    17    1
   17    17    18    1
   18    17    19    1
   19    17    20    1
   20    20    21    1
   21    20    22    1
   22    20    23    1
   23    23    24    1
   24    23    25    1
   25    23    26    1
@<TRIPOS>SUBSTRUCTURE
       1 MOL1            1 RESIDUE      1      MOL     
@<SCITEGIC>MOL_PROPERTY
VM2 Rank
SciTegic.value.IntegerValue
13

@<SCITEGIC>MOL_PROPERTY
Conf_Id
SciTegic.value.IntegerValue
198

@<SCITEGIC>MOL_PROPERTY
Probability
SciTegic.value.DoubleValue
1.77

@<SCITEGIC>MOL_PROPERTY
Sum Probability
SciTegic.value.DoubleValue
41.67

@<SCITEGIC>MOL_PROPERTY
Delta G
SciTegic.value.DoubleValue
0.842

@<SCITEGIC>MOL_PROPERTY
G
SciTegic.value.DoubleValue
49.103

@<SCITEGIC>MOL_PROPERTY
E
SciTegic.value.DoubleValue
16.466

@<SCITEGIC>MOL_PROPERTY
-TS
SciTegic.value.DoubleValue
32.638

@<SCITEGIC>MOL_PROPERTY
U+W
SciTegic.value.DoubleValue
-4.996

@<SCITEGIC>MOL_PROPERTY
U
SciTegic.value.DoubleValue
48.668

@<SCITEGIC>MOL_PROPERTY
W
SciTegic.value.DoubleValue
-53.664

@<SCITEGIC>MOL_PROPERTY
W(PB)
SciTegic.value.DoubleValue
-55.973

@<SCITEGIC>MOL_PROPERTY
W(SA)
SciTegic.value.DoubleValue
2.309

@<SCITEGIC>MOL_PROPERTY
Valence
SciTegic.value.DoubleValue
2.544

@<SCITEGIC>MOL_PROPERTY
Coulomb
SciTegic.value.DoubleValue
45.478

@<SCITEGIC>MOL_PROPERTY
VdW
SciTegic.value.DoubleValue
0.646

@<SCITEGIC>MOL_PROPERTY
VdW6
SciTegic.value.DoubleValue
-7.095

@<SCITEGIC>MOL_PROPERTY
VdW12
SciTegic.value.DoubleValue
7.741

@<SCITEGIC>MOL_PROPERTY
Bond
SciTegic.value.DoubleValue
0.176

@<SCITEGIC>MOL_PROPERTY
Angle
SciTegic.value.DoubleValue
0.630

@<SCITEGIC>MOL_PROPERTY
Pdih
SciTegic.value.DoubleValue
1.738

@<SCITEGIC>MOL_PROPERTY
Idih
SciTegic.value.DoubleValue
0.000

@<SCITEGIC>MOL_PROPERTY
Tether
SciTegic.value.DoubleValue
0.000

@<TRIPOS>MOLECULE
guest-s14_vm2.mol2 : vm2 ligand conformer 14
          26          25           1
SMALL
USER_CHARGES
 
@<TRIPOS>ATOM
       1    C1      19.464974   18.189471   19.603709 C.3        1 MOL1        -0.2400
       2    H1      19.724567   17.282414   20.163444 H          1 MOL1         0.0971
       3    H2      18.389211   18.372221   19.723525 H          1 MOL1         0.0971
       4    H3      19.654794   17.987064   18.541667 H          1 MOL1         0.0971
       5    C2      20.291700   19.405987   20.078460 C.3        1 MOL1        -0.1385
       6    H4      20.086882   20.255134   19.411529 H          1 MOL1         0.0960
       7    H5      21.363763   19.186778   19.976544 H          1 MOL1         0.0960
       8    C3      19.980412   19.831396   21.533736 C.3        1 MOL1        -0.1409
       9    H6      20.524223   20.761643   21.748755 H          1 MOL1         0.0960
      10    H7      18.911778   20.069857   21.625395 H          1 MOL1         0.0960
      11    C4      20.369439   18.764195   22.584805 C.3        1 MOL1        -0.1409
      12    H8      21.425520   18.490159   22.455169 H          1 MOL1         0.0960
      13    H9      19.780687   17.851192   22.425961 H          1 MOL1         0.0960
      14    C5      20.139981   19.269428   24.027268 C.3        1 MOL1        -0.1409
      15    H10     20.733449   20.178660   24.196746 H          1 MOL1         0.0960
      16    H11     19.085087   19.549832   24.148143 H          1 MOL1         0.0960
      17    C6      20.524318   18.200949   25.077990 C.3        1 MOL1        -0.1450
      18    H12     21.569146   17.899591   24.924718 H          1 MOL1         0.0960
      19    H13     19.914234   17.298613   24.938092 H          1 MOL1         0.0960
      20    C7      20.370260   18.706688   26.525342 C.3        1 MOL1         0.0172
      21    H14     20.734262   17.942281   27.217258 H          1 MOL1         0.0934
      22    H15     20.972220   19.608469   26.666217 H          1 MOL1         0.0934
      23    N1      18.939916   19.030885   26.909690 N.4        1 MOL1        -0.5956
      24    H16     18.870335   19.351966   27.881494 H          1 MOL1         0.3624
      25    H17     18.326984   18.214035   26.819728 H          1 MOL1         0.3624
      26    H18     18.546917   19.771297   26.320386 H          1 MOL1         0.3624
@<TRIPOS>BOND
    1     1     2    1
    2     1     3    1
    3     1     4    1
    4     1     5    1
    5     5     6    1
    6     5     7    1
    7     5     8    1
    8     8     9    1
    9     8    10    1
   10     8    11    1
   11    11    12    1
   12    11    13    1
   13    11    14    1
   14    14    15    1
   15    14    16    1
   16    14    17    1
   17    17    18    1
   18    17    19    1
   19    17    20    1
   20    20    21    1
   21    20    22    1
   22    20    23    1
   23    23    24    1
   24    23    25    1
   25    23    26    1
@<TRIPOS>SUBSTRUCTURE
       1 MOL1            1 RESIDUE      1      MOL     
@<SCITEGIC>MOL_PROPERTY
VM2 Rank
SciTegic.value.IntegerValue
14

@<SCITEGIC>MOL_PROPERTY
Conf_Id
SciTegic.value.IntegerValue
1624

@<SCITEGIC>MOL_PROPERTY
Probability
SciTegic.value.DoubleValue
1.74

@<SCITEGIC>MOL_PROPERTY
Sum Probability
SciTegic.value.DoubleValue
43.41

@<SCITEGIC>MOL_PROPERTY
Delta G
SciTegic.value.DoubleValue
0.855

@<SCITEGIC>MOL_PROPERTY
G
SciTegic.value.DoubleValue
49.116

@<SCITEGIC>MOL_PROPERTY
E
SciTegic.value.DoubleValue
16.550

@<SCITEGIC>MOL_PROPERTY
-TS
SciTegic.value.DoubleValue
32.566

@<SCITEGIC>MOL_PROPERTY
U+W
SciTegic.value.DoubleValue
-4.912

@<SCITEGIC>MOL_PROPERTY
U
SciTegic.value.DoubleValue
48.485

@<SCITEGIC>MOL_PROPERTY
W
SciTegic.value.DoubleValue
-53.397

@<SCITEGIC>MOL_PROPERTY
W(PB)
SciTegic.value.DoubleValue
-55.722

@<SCITEGIC>MOL_PROPERTY
W(SA)
SciTegic.value.DoubleValue
2.324

@<SCITEGIC>MOL_PROPERTY
Valence
SciTegic.value.DoubleValue
2.763

@<SCITEGIC>MOL_PROPERTY
Coulomb
SciTegic.value.DoubleValue
44.894

@<SCITEGIC>MOL_PROPERTY
VdW
SciTegic.value.DoubleValue
0.828

@<SCITEGIC>MOL_PROPERTY
VdW6
SciTegic.value.DoubleValue
-6.905

@<SCITEGIC>MOL_PROPERTY
VdW12
SciTegic.value.DoubleValue
7.733

@<SCITEGIC>MOL_PROPERTY
Bond
SciTegic.value.DoubleValue
0.184

@<SCITEGIC>MOL_PROPERTY
Angle
SciTegic.value.DoubleValue
0.675

@<SCITEGIC>MOL_PROPERTY
Pdih
SciTegic.value.DoubleValue
1.904

@<SCITEGIC>MOL_PROPERTY
Idih
SciTegic.value.DoubleValue
0.000

@<SCITEGIC>MOL_PROPERTY
Tether
SciTegic.value.DoubleValue
0.000

@<TRIPOS>MOLECULE
guest-s14_vm2.mol2 : vm2 ligand conformer 15
          26          25           1
SMALL
USER_CHARGES
 
@<TRIPOS>ATOM
       1    C1      21.070934   19.250358   19.657300 C.3        1 MOL1        -0.2400
       2    H1      21.232039   19.028864   18.594322 H          1 MOL1         0.0971
       3    H2      21.318306   20.307226   19.821182 H          1 MOL1         0.0971
       4    H3      21.777035   18.638345   20.232022 H          1 MOL1         0.0971
       5    C2      19.607299   18.953866   20.055592 C.3        1 MOL1        -0.1385
       6    H4      19.393992   17.885557   19.910769 H          1 MOL1         0.0960
       7    H5      18.937984   19.496165   19.373153 H          1 MOL1         0.0960
       8    C3      19.270532   19.362454   21.510012 C.3        1 MOL1        -0.1409
       9    H6      19.465520   20.435437   21.643909 H          1 MOL1         0.0960
      10    H7      18.192725   19.221753   21.670821 H          1 MOL1         0.0960
      11    C4      20.050060   18.553154   22.574142 C.3        1 MOL1        -0.1409
      12    H8      21.127011   18.740141   22.470952 H          1 MOL1         0.0960
      13    H9      19.894377   17.478893   22.404045 H          1 MOL1         0.0960
      14    C5      19.608519   18.918389   24.009501 C.3        1 MOL1        -0.1409
      15    H10     19.758290   19.994332   24.170601 H          1 MOL1         0.0960
      16    H11     18.532688   18.725267   24.123173 H          1 MOL1         0.0960
      17    C6      20.391012   18.112909   25.073587 C.3        1 MOL1        -0.1450
      18    H12     21.465635   18.323133   24.990051 H          1 MOL1         0.0960
      19    H13     20.265975   17.038971   24.881238 H          1 MOL1         0.0960
      20    C7      19.919165   18.408891   26.510280 C.3        1 MOL1         0.0172
      21    H14     18.848173   18.205953   26.595153 H          1 MOL1         0.0934
      22    H15     20.446827   17.752612   27.207727 H          1 MOL1         0.0934
      23    N1      20.163480   19.838979   26.950585 N.4        1 MOL1        -0.5956
      24    H16     19.664533   20.509327   26.357607 H          1 MOL1         0.3624
      25    H17     21.158361   20.083795   26.914543 H          1 MOL1         0.3624
      26    H18     19.850290   19.999370   27.914184 H          1 MOL1         0.3624
@<TRIPOS>BOND
    1     1     2    1
    2     1     3    1
    3     1     4    1
    4     1     5    1
    5     5     6    1
    6     5     7    1
    7     5     8    1
    8     8     9    1
    9     8    10    1
   10     8    11    1
   11    11    12    1
   12    11    13    1
   13    11    14    1
   14    14    15    1
   15    14    16    1
   16    14    17    1
   17    17    18    1
   18    17    19    1
   19    17    20    1
   20    20    21    1
   21    20    22    1
   22    20    23    1
   23    23    24    1
   24    23    25    1
   25    23    26    1
@<TRIPOS>SUBSTRUCTURE
       1 MOL1            1 RESIDUE      1      MOL     
@<SCITEGIC>MOL_PROPERTY
VM2 Rank
SciTegic.value.IntegerValue
15

@<SCITEGIC>MOL_PROPERTY
Conf_Id
SciTegic.value.IntegerValue
1033

@<SCITEGIC>MOL_PROPERTY
Probability
SciTegic.value.DoubleValue
1.71

@<SCITEGIC>MOL_PROPERTY
Sum Probability
SciTegic.value.DoubleValue
45.12

@<SCITEGIC>MOL_PROPERTY
Delta G
SciTegic.value.DoubleValue
0.865

@<SCITEGIC>MOL_PROPERTY
G
SciTegic.value.DoubleValue
49.126

@<SCITEGIC>MOL_PROPERTY
E
SciTegic.value.DoubleValue
16.560

@<SCITEGIC>MOL_PROPERTY
-TS
SciTegic.value.DoubleValue
32.566

@<SCITEGIC>MOL_PROPERTY
U+W
SciTegic.value.DoubleValue
-4.902

@<SCITEGIC>MOL_PROPERTY
U
SciTegic.value.DoubleValue
48.485

@<SCITEGIC>MOL_PROPERTY
W
SciTegic.value.DoubleValue
-53.387

@<SCITEGIC>MOL_PROPERTY
W(PB)
SciTegic.value.DoubleValue
-55.718

@<SCITEGIC>MOL_PROPERTY
W(SA)
SciTegic.value.DoubleValue
2.331

@<SCITEGIC>MOL_PROPERTY
Valence
SciTegic.value.DoubleValue
2.763

@<SCITEGIC>MOL_PROPERTY
Coulomb
SciTegic.value.DoubleValue
44.894

@<SCITEGIC>MOL_PROPERTY
VdW
SciTegic.value.DoubleValue
0.828

@<SCITEGIC>MOL_PROPERTY
VdW6
SciTegic.value.DoubleValue
-6.904

@<SCITEGIC>MOL_PROPERTY
VdW12
SciTegic.value.DoubleValue
7.733

@<SCITEGIC>MOL_PROPERTY
Bond
SciTegic.value.DoubleValue
0.184

@<SCITEGIC>MOL_PROPERTY
Angle
SciTegic.value.DoubleValue
0.675

@<SCITEGIC>MOL_PROPERTY
Pdih
SciTegic.value.DoubleValue
1.904

@<SCITEGIC>MOL_PROPERTY
Idih
SciTegic.value.DoubleValue
0.000

@<SCITEGIC>MOL_PROPERTY
Tether
SciTegic.value.DoubleValue
0.000

@<TRIPOS>MOLECULE
guest-s14_vm2.mol2 : vm2 ligand conformer 16
          26          25           1
SMALL
USER_CHARGES
 
@<TRIPOS>ATOM
       1    C1      19.558192   18.726462   19.178926 C.3        1 MOL1        -0.2400
       2    H1      18.462406   18.739018   19.244725 H          1 MOL1         0.0971
       3    H2      19.892574   19.719961   18.852752 H          1 MOL1         0.0971
       4    H3      19.840886   18.003998   18.402284 H          1 MOL1         0.0971
       5    C2      20.191009   18.345376   20.534071 C.3        1 MOL1        -0.1385
       6    H4      21.284318   18.308067   20.428215 H          1 MOL1         0.0960
       7    H5      19.865234   17.334582   20.817051 H          1 MOL1         0.0960
       8    C3      19.808583   19.347249   21.645966 C.3        1 MOL1        -0.1409
       9    H6      20.133836   20.356267   21.356978 H          1 MOL1         0.0960
      10    H7      18.714967   19.382599   21.746663 H          1 MOL1         0.0960
      11    C4      20.440871   18.969176   23.004453 C.3        1 MOL1        -0.1409
      12    H8      21.534537   18.937662   22.903114 H          1 MOL1         0.0960
      13    H9      20.117611   17.957306   23.282881 H          1 MOL1         0.0960
      14    C5      20.054416   19.973285   24.116768 C.3        1 MOL1        -0.1409
      15    H10     20.341967   20.986279   23.802903 H          1 MOL1         0.0960
      16    H11     18.963158   19.990594   24.239038 H          1 MOL1         0.0960
      17    C6      20.732503   19.668188   25.476032 C.3        1 MOL1        -0.1450
      18    H12     20.450374   20.440557   26.203812 H          1 MOL1         0.0960
      19    H13     21.822211   19.739919   25.360895 H          1 MOL1         0.0960
      20    C7      20.386605   18.280610   26.053515 C.3        1 MOL1         0.0172
      21    H14     20.704953   17.500224   25.357605 H          1 MOL1         0.0934
      22    H15     20.923735   18.135211   26.994713 H          1 MOL1         0.0934
      23    N1      18.908821   18.088653   26.331268 N.4        1 MOL1        -0.5956
      24    H16     18.711560   17.160630   26.721198 H          1 MOL1         0.3624
      25    H17     18.349220   18.182500   25.478017 H          1 MOL1         0.3624
      26    H18     18.555605   18.777461   27.003354 H          1 MOL1         0.3624
@<TRIPOS>BOND
    1     1     2    1
    2     1     3    1
    3     1     4    1
    4     1     5    1
    5     5     6    1
    6     5     7    1
    7     5     8    1
    8     8     9    1
    9     8    10    1
   10     8    11    1
   11    11    12    1
   12    11    13    1
   13    11    14    1
   14    14    15    1
   15    14    16    1
   16    14    17    1
   17    17    18    1
   18    17    19    1
   19    17    20    1
   20    20    21    1
   21    20    22    1
   22    20    23    1
   23    23    24    1
   24    23    25    1
   25    23    26    1
@<TRIPOS>SUBSTRUCTURE
       1 MOL1            1 RESIDUE      1      MOL     
@<SCITEGIC>MOL_PROPERTY
VM2 Rank
SciTegic.value.IntegerValue
16

@<SCITEGIC>MOL_PROPERTY
Conf_Id
SciTegic.value.IntegerValue
473

@<SCITEGIC>MOL_PROPERTY
Probability
SciTegic.value.DoubleValue
1.68

@<SCITEGIC>MOL_PROPERTY
Sum Probability
SciTegic.value.DoubleValue
46.80

@<SCITEGIC>MOL_PROPERTY
Delta G
SciTegic.value.DoubleValue
0.873

@<SCITEGIC>MOL_PROPERTY
G
SciTegic.value.DoubleValue
49.134

@<SCITEGIC>MOL_PROPERTY
E
SciTegic.value.DoubleValue
16.497

@<SCITEGIC>MOL_PROPERTY
-TS
SciTegic.value.DoubleValue
32.638

@<SCITEGIC>MOL_PROPERTY
U+W
SciTegic.value.DoubleValue
-4.965

@<SCITEGIC>MOL_PROPERTY
U
SciTegic.value.DoubleValue
48.667

@<SCITEGIC>MOL_PROPERTY
W
SciTegic.value.DoubleValue
-53.632

@<SCITEGIC>MOL_PROPERTY
W(PB)
SciTegic.value.DoubleValue
-55.950

@<SCITEGIC>MOL_PROPERTY
W(SA)
SciTegic.value.DoubleValue
2.318

@<SCITEGIC>MOL_PROPERTY
Valence
SciTegic.value.DoubleValue
2.543

@<SCITEGIC>MOL_PROPERTY
Coulomb
SciTegic.value.DoubleValue
45.478

@<SCITEGIC>MOL_PROPERTY
VdW
SciTegic.value.DoubleValue
0.646

@<SCITEGIC>MOL_PROPERTY
VdW6
SciTegic.value.DoubleValue
-7.095

@<SCITEGIC>MOL_PROPERTY
VdW12
SciTegic.value.DoubleValue
7.741

@<SCITEGIC>MOL_PROPERTY
Bond
SciTegic.value.DoubleValue
0.176

@<SCITEGIC>MOL_PROPERTY
Angle
SciTegic.value.DoubleValue
0.630

@<SCITEGIC>MOL_PROPERTY
Pdih
SciTegic.value.DoubleValue
1.738

@<SCITEGIC>MOL_PROPERTY
Idih
SciTegic.value.DoubleValue
0.000

@<SCITEGIC>MOL_PROPERTY
Tether
SciTegic.value.DoubleValue
0.000

@<TRIPOS>MOLECULE
guest-s14_vm2.mol2 : vm2 ligand conformer 17
          26          25           1
SMALL
USER_CHARGES
 
@<TRIPOS>ATOM
       1    C1      19.322463   18.918701   19.484164 C.3        1 MOL1        -0.2400
       2    H1      18.916866   19.938752   19.487428 H          1 MOL1         0.0971
       3    H2      19.369019   18.579360   18.441276 H          1 MOL1         0.0971
       4    H3      18.616338   18.265707   20.011825 H          1 MOL1         0.0971
       5    C2      20.726175   18.876631   20.129613 C.3        1 MOL1        -0.1385
       6    H4      21.423119   19.445553   19.498430 H          1 MOL1         0.0960
       7    H5      21.096734   17.842078   20.141371 H          1 MOL1         0.0960
       8    C3      20.762716   19.462079   21.561964 C.3        1 MOL1        -0.1409
       9    H6      21.808289   19.495514   21.898058 H          1 MOL1         0.0960
      10    H7      20.411143   20.502872   21.541799 H          1 MOL1         0.0960
      11    C4      19.929628   18.649237   22.581907 C.3        1 MOL1        -0.1409
      12    H8      20.249376   17.598239   22.561980 H          1 MOL1         0.0960
      13    H9      18.869705   18.666136   22.296131 H          1 MOL1         0.0960
      14    C5      20.076498   19.206174   24.016096 C.3        1 MOL1        -0.1409
      15    H10     21.136034   19.189061   24.304318 H          1 MOL1         0.0960
      16    H11     19.757358   20.257578   24.035342 H          1 MOL1         0.0960
      17    C6      19.241351   18.395591   25.035354 C.3        1 MOL1        -0.1450
      18    H12     19.573059   17.348768   25.046133 H          1 MOL1         0.0960
      19    H13     18.189632   18.387743   24.719451 H          1 MOL1         0.0960
      20    C7      19.317418   18.974045   26.461518 C.3        1 MOL1         0.0172
      21    H14     18.993559   20.018293   26.452987 H          1 MOL1         0.0934
      22    H15     18.644569   18.413768   27.116445 H          1 MOL1         0.0934
      23    N1      20.704751   18.916541   27.070384 N.4        1 MOL1        -0.5956
      24    H16     20.718443   19.296832   28.023026 H          1 MOL1         0.3624
      25    H17     21.382479   19.455544   26.522575 H          1 MOL1         0.3624
      26    H18     21.056254   17.955141   27.126809 H          1 MOL1         0.3624
@<TRIPOS>BOND
    1     1     2    1
    2     1     3    1
    3     1     4    1
    4     1     5    1
    5     5     6    1
    6     5     7    1
    7     5     8    1
    8     8     9    1
    9     8    10    1
   10     8    11    1
   11    11    12    1
   12    11    13    1
   13    11    14    1
   14    14    15    1
   15    14    16    1
   16    14    17    1
   17    17    18    1
   18    17    19    1
   19    17    20    1
   20    20    21    1
   21    20    22    1
   22    20    23    1
   23    23    24    1
   24    23    25    1
   25    23    26    1
@<TRIPOS>SUBSTRUCTURE
       1 MOL1            1 RESIDUE      1      MOL     
@<SCITEGIC>MOL_PROPERTY
VM2 Rank
SciTegic.value.IntegerValue
17

@<SCITEGIC>MOL_PROPERTY
Conf_Id
SciTegic.value.IntegerValue
1229

@<SCITEGIC>MOL_PROPERTY
Probability
SciTegic.value.DoubleValue
1.64

@<SCITEGIC>MOL_PROPERTY
Sum Probability
SciTegic.value.DoubleValue
48.44

@<SCITEGIC>MOL_PROPERTY
Delta G
SciTegic.value.DoubleValue
0.887

@<SCITEGIC>MOL_PROPERTY
G
SciTegic.value.DoubleValue
49.148

@<SCITEGIC>MOL_PROPERTY
E
SciTegic.value.DoubleValue
16.582

@<SCITEGIC>MOL_PROPERTY
-TS
SciTegic.value.DoubleValue
32.566

@<SCITEGIC>MOL_PROPERTY
U+W
SciTegic.value.DoubleValue
-4.879

@<SCITEGIC>MOL_PROPERTY
U
SciTegic.value.DoubleValue
48.461

@<SCITEGIC>MOL_PROPERTY
W
SciTegic.value.DoubleValue
-53.340

@<SCITEGIC>MOL_PROPERTY
W(PB)
SciTegic.value.DoubleValue
-55.653

@<SCITEGIC>MOL_PROPERTY
W(SA)
SciTegic.value.DoubleValue
2.313

@<SCITEGIC>MOL_PROPERTY
Valence
SciTegic.value.DoubleValue
2.762

@<SCITEGIC>MOL_PROPERTY
Coulomb
SciTegic.value.DoubleValue
44.868

@<SCITEGIC>MOL_PROPERTY
VdW
SciTegic.value.DoubleValue
0.832

@<SCITEGIC>MOL_PROPERTY
VdW6
SciTegic.value.DoubleValue
-6.903

@<SCITEGIC>MOL_PROPERTY
VdW12
SciTegic.value.DoubleValue
7.735

@<SCITEGIC>MOL_PROPERTY
Bond
SciTegic.value.DoubleValue
0.184

@<SCITEGIC>MOL_PROPERTY
Angle
SciTegic.value.DoubleValue
0.674

@<SCITEGIC>MOL_PROPERTY
Pdih
SciTegic.value.DoubleValue
1.903

@<SCITEGIC>MOL_PROPERTY
Idih
SciTegic.value.DoubleValue
0.000

@<SCITEGIC>MOL_PROPERTY
Tether
SciTegic.value.DoubleValue
0.000

@<TRIPOS>MOLECULE
guest-s14_vm2.mol2 : vm2 ligand conformer 18
          26          25           1
SMALL
USER_CHARGES
 
@<TRIPOS>ATOM
       1    C1      19.477354   19.880489   19.423611 C.3        1 MOL1        -0.2400
       2    H1      19.755724   20.901033   19.717254 H          1 MOL1         0.0971
       3    H2      19.738290   19.751437   18.365168 H          1 MOL1         0.0971
       4    H3      18.387793   19.783108   19.516380 H          1 MOL1         0.0971
       5    C2      20.203986   18.834472   20.295428 C.3        1 MOL1        -0.1385
       6    H4      21.289603   18.934647   20.156405 H          1 MOL1         0.0960
       7    H5      19.932599   17.825221   19.955337 H          1 MOL1         0.0960
       8    C3      19.853281   18.993407   21.791481 C.3        1 MOL1        -0.1409
       9    H6      20.120633   20.007574   22.115823 H          1 MOL1         0.0960
      10    H7      18.767622   18.890549   21.925531 H          1 MOL1         0.0960
      11    C4      20.584627   17.947542   22.667007 C.3        1 MOL1        -0.1409
      12    H8      21.671291   18.081968   22.575341 H          1 MOL1         0.0960
      13    H9      20.364974   16.942156   22.281856 H          1 MOL1         0.0960
      14    C5      20.179467   17.999645   24.160569 C.3        1 MOL1        -0.1409
      15    H10     19.096284   17.840905   24.247837 H          1 MOL1         0.0960
      16    H11     20.658838   17.158795   24.680923 H          1 MOL1         0.0960
      17    C6      20.581465   19.320482   24.863162 C.3        1 MOL1        -0.1450
      18    H12     20.033391   20.167511   24.431641 H          1 MOL1         0.0960
      19    H13     21.648500   19.514391   24.691080 H          1 MOL1         0.0960
      20    C7      20.331763   19.281297   26.383064 C.3        1 MOL1         0.0172
      21    H14     20.876063   18.441832   26.824007 H          1 MOL1         0.0934
      22    H15     20.703515   20.204425   26.836041 H          1 MOL1         0.0934
      23    N1      18.869057   19.141666   26.756678 N.4        1 MOL1        -0.5956
      24    H16     18.735402   19.129487   27.773680 H          1 MOL1         0.3624
      25    H17     18.465236   18.273970   26.390627 H          1 MOL1         0.3624
      26    H18     18.306714   19.916419   26.389978 H          1 MOL1         0.3624
@<TRIPOS>BOND
    1     1     2    1
    2     1     3    1
    3     1     4    1
    4     1     5    1
    5     5     6    1
    6     5     7    1
    7     5     8    1
    8     8     9    1
    9     8    10    1
   10     8    11    1
   11    11    12    1
   12    11    13    1
   13    11    14    1
   14    14    15    1
   15    14    16    1
   16    14    17    1
   17    17    18    1
   18    17    19    1
   19    17    20    1
   20    20    21    1
   21    20    22    1
   22    20    23    1
   23    23    24    1
   24    23    25    1
   25    23    26    1
@<TRIPOS>SUBSTRUCTURE
       1 MOL1            1 RESIDUE      1      MOL     
@<SCITEGIC>MOL_PROPERTY
VM2 Rank
SciTegic.value.IntegerValue
18

@<SCITEGIC>MOL_PROPERTY
Conf_Id
SciTegic.value.IntegerValue
1225

@<SCITEGIC>MOL_PROPERTY
Probability
SciTegic.value.DoubleValue
1.59

@<SCITEGIC>MOL_PROPERTY
Sum Probability
SciTegic.value.DoubleValue
50.03

@<SCITEGIC>MOL_PROPERTY
Delta G
SciTegic.value.DoubleValue
0.908

@<SCITEGIC>MOL_PROPERTY
G
SciTegic.value.DoubleValue
49.169

@<SCITEGIC>MOL_PROPERTY
E
SciTegic.value.DoubleValue
16.602

@<SCITEGIC>MOL_PROPERTY
-TS
SciTegic.value.DoubleValue
32.567

@<SCITEGIC>MOL_PROPERTY
U+W
SciTegic.value.DoubleValue
-4.860

@<SCITEGIC>MOL_PROPERTY
U
SciTegic.value.DoubleValue
48.698

@<SCITEGIC>MOL_PROPERTY
W
SciTegic.value.DoubleValue
-53.557

@<SCITEGIC>MOL_PROPERTY
W(PB)
SciTegic.value.DoubleValue
-55.855

@<SCITEGIC>MOL_PROPERTY
W(SA)
SciTegic.value.DoubleValue
2.298

@<SCITEGIC>MOL_PROPERTY
Valence
SciTegic.value.DoubleValue
2.792

@<SCITEGIC>MOL_PROPERTY
Coulomb
SciTegic.value.DoubleValue
45.121

@<SCITEGIC>MOL_PROPERTY
VdW
SciTegic.value.DoubleValue
0.785

@<SCITEGIC>MOL_PROPERTY
VdW6
SciTegic.value.DoubleValue
-6.973

@<SCITEGIC>MOL_PROPERTY
VdW12
SciTegic.value.DoubleValue
7.758

@<SCITEGIC>MOL_PROPERTY
Bond
SciTegic.value.DoubleValue
0.189

@<SCITEGIC>MOL_PROPERTY
Angle
SciTegic.value.DoubleValue
0.672

@<SCITEGIC>MOL_PROPERTY
Pdih
SciTegic.value.DoubleValue
1.931

@<SCITEGIC>MOL_PROPERTY
Idih
SciTegic.value.DoubleValue
0.000

@<SCITEGIC>MOL_PROPERTY
Tether
SciTegic.value.DoubleValue
0.000

@<TRIPOS>MOLECULE
guest-s14_vm2.mol2 : vm2 ligand conformer 19
          26          25           1
SMALL
USER_CHARGES
 
@<TRIPOS>ATOM
       1    C1      19.520755   19.909113   19.425037 C.3        1 MOL1        -0.2400
       2    H1      19.586380   19.651083   18.360069 H          1 MOL1         0.0971
       3    H2      18.460265   20.045694   19.673900 H          1 MOL1         0.0971
       4    H3      20.032759   20.869155   19.571340 H          1 MOL1         0.0971
       5    C2      20.156694   18.803236   20.293845 C.3        1 MOL1        -0.1385
       6    H4      21.206229   18.666107   19.997924 H          1 MOL1         0.0960
       7    H5      19.645815   17.849339   20.101458 H          1 MOL1         0.0960
       8    C3      20.078426   19.142066   21.799004 C.3        1 MOL1        -0.1409
       9    H6      20.592016   20.095099   21.986511 H          1 MOL1         0.0960
      10    H7      19.026688   19.285320   22.079244 H          1 MOL1         0.0960
      11    C4      20.712219   18.031798   22.671276 C.3        1 MOL1        -0.1409
      12    H8      21.740029   17.850033   22.327827 H          1 MOL1         0.0960
      13    H9      20.167255   17.088958   22.525066 H          1 MOL1         0.0960
      14    C5      20.753577   18.378709   24.179765 C.3        1 MOL1        -0.1409
      15    H10     21.314193   17.591500   24.702838 H          1 MOL1         0.0960
      16    H11     21.319753   19.308905   24.322173 H          1 MOL1         0.0960
      17    C6      19.349695   18.507275   24.821974 C.3        1 MOL1        -0.1450
      18    H12     18.761477   17.608358   24.594544 H          1 MOL1         0.0960
      19    H13     18.806187   19.357318   24.390602 H          1 MOL1         0.0960
      20    C7      19.412789   18.674602   26.352338 C.3        1 MOL1         0.0172
      21    H14     18.397813   18.682255   26.758929 H          1 MOL1         0.0934
      22    H15     19.950327   17.830676   26.793060 H          1 MOL1         0.0934
      23    N1      20.096846   19.952202   26.797761 N.4        1 MOL1        -0.5956
      24    H16     19.622378   20.784974   26.434015 H          1 MOL1         0.3624
      25    H17     21.069406   19.993162   26.477748 H          1 MOL1         0.3624
      26    H18     20.113066   20.038950   27.819778 H          1 MOL1         0.3624
@<TRIPOS>BOND
    1     1     2    1
    2     1     3    1
    3     1     4    1
    4     1     5    1
    5     5     6    1
    6     5     7    1
    7     5     8    1
    8     8     9    1
    9     8    10    1
   10     8    11    1
   11    11    12    1
   12    11    13    1
   13    11    14    1
   14    14    15    1
   15    14    16    1
   16    14    17    1
   17    17    18    1
   18    17    19    1
   19    17    20    1
   20    20    21    1
   21    20    22    1
   22    20    23    1
   23    23    24    1
   24    23    25    1
   25    23    26    1
@<TRIPOS>SUBSTRUCTURE
       1 MOL1            1 RESIDUE      1      MOL     
@<SCITEGIC>MOL_PROPERTY
VM2 Rank
SciTegic.value.IntegerValue
19

@<SCITEGIC>MOL_PROPERTY
Conf_Id
SciTegic.value.IntegerValue
272

@<SCITEGIC>MOL_PROPERTY
Probability
SciTegic.value.DoubleValue
1.55

@<SCITEGIC>MOL_PROPERTY
Sum Probability
SciTegic.value.DoubleValue
51.58

@<SCITEGIC>MOL_PROPERTY
Delta G
SciTegic.value.DoubleValue
0.922

@<SCITEGIC>MOL_PROPERTY
G
SciTegic.value.DoubleValue
49.183

@<SCITEGIC>MOL_PROPERTY
E
SciTegic.value.DoubleValue
16.616

@<SCITEGIC>MOL_PROPERTY
-TS
SciTegic.value.DoubleValue
32.567

@<SCITEGIC>MOL_PROPERTY
U+W
SciTegic.value.DoubleValue
-4.846

@<SCITEGIC>MOL_PROPERTY
U
SciTegic.value.DoubleValue
48.698

@<SCITEGIC>MOL_PROPERTY
W
SciTegic.value.DoubleValue
-53.544

@<SCITEGIC>MOL_PROPERTY
W(PB)
SciTegic.value.DoubleValue
-55.868

@<SCITEGIC>MOL_PROPERTY
W(SA)
SciTegic.value.DoubleValue
2.324

@<SCITEGIC>MOL_PROPERTY
Valence
SciTegic.value.DoubleValue
2.792

@<SCITEGIC>MOL_PROPERTY
Coulomb
SciTegic.value.DoubleValue
45.121

@<SCITEGIC>MOL_PROPERTY
VdW
SciTegic.value.DoubleValue
0.785

@<SCITEGIC>MOL_PROPERTY
VdW6
SciTegic.value.DoubleValue
-6.973

@<SCITEGIC>MOL_PROPERTY
VdW12
SciTegic.value.DoubleValue
7.758

@<SCITEGIC>MOL_PROPERTY
Bond
SciTegic.value.DoubleValue
0.189

@<SCITEGIC>MOL_PROPERTY
Angle
SciTegic.value.DoubleValue
0.672

@<SCITEGIC>MOL_PROPERTY
Pdih
SciTegic.value.DoubleValue
1.930

@<SCITEGIC>MOL_PROPERTY
Idih
SciTegic.value.DoubleValue
0.000

@<SCITEGIC>MOL_PROPERTY
Tether
SciTegic.value.DoubleValue
0.000

@<TRIPOS>MOLECULE
guest-s14_vm2.mol2 : vm2 ligand conformer 20
          26          25           1
SMALL
USER_CHARGES
 
@<TRIPOS>ATOM
       1    C1      19.501659   19.782073   19.385538 C.3        1 MOL1        -0.2400
       2    H1      20.143912   19.240539   18.678798 H          1 MOL1         0.0971
       3    H2      18.498899   19.851134   18.944244 H          1 MOL1         0.0971
       4    H3      19.894070   20.801835   19.492015 H          1 MOL1         0.0971
       5    C2      19.448089   19.063379   20.750416 C.3        1 MOL1        -0.1385
       6    H4      19.024642   18.058192   20.616260 H          1 MOL1         0.0960
       7    H5      18.765895   19.610780   21.414201 H          1 MOL1         0.0960
       8    C3      20.850727   18.957796   21.394421 C.3        1 MOL1        -0.1409
       9    H6      21.535478   18.478637   20.681072 H          1 MOL1         0.0960
      10    H7      21.251345   19.964502   21.576854 H          1 MOL1         0.0960
      11    C4      20.868622   18.145010   22.712379 C.3        1 MOL1        -0.1409
      12    H8      21.913067   18.024007   23.031572 H          1 MOL1         0.0960
      13    H9      20.484346   17.132831   22.524924 H          1 MOL1         0.0960
      14    C5      20.065253   18.805780   23.858361 C.3        1 MOL1        -0.1409
      15    H10     20.415447   19.837200   23.997484 H          1 MOL1         0.0960
      16    H11     19.002653   18.861301   23.587750 H          1 MOL1         0.0960
      17    C6      20.206990   18.019262   25.183024 C.3        1 MOL1        -0.1450
      18    H12     21.260679   17.985456   25.490545 H          1 MOL1         0.0960
      19    H13     19.893642   16.978944   25.023195 H          1 MOL1         0.0960
      20    C7      19.357937   18.614657   26.322758 C.3        1 MOL1         0.0172
      21    H14     18.308651   18.654386   26.018083 H          1 MOL1         0.0934
      22    H15     19.432847   17.972301   27.204421 H          1 MOL1         0.0934
      23    N1      19.781722   20.011043   26.734104 N.4        1 MOL1        -0.5956
      24    H16     19.205832   20.372899   27.502049 H          1 MOL1         0.3624
      25    H17     19.700504   20.676302   25.959025 H          1 MOL1         0.3624
      26    H18     20.755614   20.034712   27.053485 H          1 MOL1         0.3624
@<TRIPOS>BOND
    1     1     2    1
    2     1     3    1
    3     1     4    1
    4     1     5    1
    5     5     6    1
    6     5     7    1
    7     5     8    1
    8     8     9    1
    9     8    10    1
   10     8    11    1
   11    11    12    1
   12    11    13    1
   13    11    14    1
   14    14    15    1
   15    14    16    1
   16    14    17    1
   17    17    18    1
   18    17    19    1
   19    17    20    1
   20    20    21    1
   21    20    22    1
   22    20    23    1
   23    23    24    1
   24    23    25    1
   25    23    26    1
@<TRIPOS>SUBSTRUCTURE
       1 MOL1            1 RESIDUE      1      MOL     
@<SCITEGIC>MOL_PROPERTY
VM2 Rank
SciTegic.value.IntegerValue
20

@<SCITEGIC>MOL_PROPERTY
Conf_Id
SciTegic.value.IntegerValue
418

@<SCITEGIC>MOL_PROPERTY
Probability
SciTegic.value.DoubleValue
1.51

@<SCITEGIC>MOL_PROPERTY
Sum Probability
SciTegic.value.DoubleValue
53.09

@<SCITEGIC>MOL_PROPERTY
Delta G
SciTegic.value.DoubleValue
0.940

@<SCITEGIC>MOL_PROPERTY
G
SciTegic.value.DoubleValue
49.201

@<SCITEGIC>MOL_PROPERTY
E
SciTegic.value.DoubleValue
16.644

@<SCITEGIC>MOL_PROPERTY
-TS
SciTegic.value.DoubleValue
32.557

@<SCITEGIC>MOL_PROPERTY
U+W
SciTegic.value.DoubleValue
-4.818

@<SCITEGIC>MOL_PROPERTY
U
SciTegic.value.DoubleValue
48.736

@<SCITEGIC>MOL_PROPERTY
W
SciTegic.value.DoubleValue
-53.554

@<SCITEGIC>MOL_PROPERTY
W(PB)
SciTegic.value.DoubleValue
-55.889

@<SCITEGIC>MOL_PROPERTY
W(SA)
SciTegic.value.DoubleValue
2.335

@<SCITEGIC>MOL_PROPERTY
Valence
SciTegic.value.DoubleValue
2.803

@<SCITEGIC>MOL_PROPERTY
Coulomb
SciTegic.value.DoubleValue
45.124

@<SCITEGIC>MOL_PROPERTY
VdW
SciTegic.value.DoubleValue
0.809

@<SCITEGIC>MOL_PROPERTY
VdW6
SciTegic.value.DoubleValue
-6.953

@<SCITEGIC>MOL_PROPERTY
VdW12
SciTegic.value.DoubleValue
7.762

@<SCITEGIC>MOL_PROPERTY
Bond
SciTegic.value.DoubleValue
0.188

@<SCITEGIC>MOL_PROPERTY
Angle
SciTegic.value.DoubleValue
0.699

@<SCITEGIC>MOL_PROPERTY
Pdih
SciTegic.value.DoubleValue
1.917

@<SCITEGIC>MOL_PROPERTY
Idih
SciTegic.value.DoubleValue
0.000

@<SCITEGIC>MOL_PROPERTY
Tether
SciTegic.value.DoubleValue
0.000

@<TRIPOS>MOLECULE
guest-s14_vm2.mol2 : vm2 ligand conformer 21
          26          25           1
SMALL
USER_CHARGES
 
@<TRIPOS>ATOM
       1    C1      19.603266   19.849110   19.388891 C.3        1 MOL1        -0.2400
       2    H1      18.507531   19.886228   19.445683 H          1 MOL1         0.0971
       3    H2      19.953048   20.811273   18.992747 H          1 MOL1         0.0971
       4    H3      19.882190   19.067660   18.670028 H          1 MOL1         0.0971
       5    C2      20.221263   19.573872   20.776193 C.3        1 MOL1        -0.1385
       6    H4      19.954589   20.395655   21.453841 H          1 MOL1         0.0960
       7    H5      21.317046   19.571850   20.692761 H          1 MOL1         0.0960
       8    C3      19.738995   18.223669   21.357272 C.3        1 MOL1        -0.1409
       9    H6      18.648510   18.245770   21.489888 H          1 MOL1         0.0960
      10    H7      19.944296   17.427893   20.627933 H          1 MOL1         0.0960
      11    C4      20.417603   17.847218   22.697321 C.3        1 MOL1        -0.1409
      12    H8      21.506954   17.808149   22.559120 H          1 MOL1         0.0960
      13    H9      20.104929   16.830053   22.971189 H          1 MOL1         0.0960
      14    C5      20.071688   18.810110   23.858559 C.3        1 MOL1        -0.1409
      15    H10     20.449321   19.816738   23.636022 H          1 MOL1         0.0960
      16    H11     18.980247   18.889494   23.949535 H          1 MOL1         0.0960
      17    C6      20.677437   18.330048   25.198724 C.3        1 MOL1        -0.1450
      18    H12     21.763614   18.214155   25.085674 H          1 MOL1         0.0960
      19    H13     20.281801   17.338919   25.457775 H          1 MOL1         0.0960
      20    C7      20.409540   19.309285   26.357906 C.3        1 MOL1         0.0172
      21    H14     20.929690   18.961004   27.254404 H          1 MOL1         0.0934
      22    H15     20.797738   20.298645   26.101252 H          1 MOL1         0.0934
      23    N1      18.941209   19.455690   26.706132 N.4        1 MOL1        -0.5956
      24    H16     18.798302   20.103647   27.488475 H          1 MOL1         0.3624
      25    H17     18.523605   18.560095   26.979168 H          1 MOL1         0.3624
      26    H18     18.397499   19.815349   25.915602 H          1 MOL1         0.3624
@<TRIPOS>BOND
    1     1     2    1
    2     1     3    1
    3     1     4    1
    4     1     5    1
    5     5     6    1
    6     5     7    1
    7     5     8    1
    8     8     9    1
    9     8    10    1
   10     8    11    1
   11    11    12    1
   12    11    13    1
   13    11    14    1
   14    14    15    1
   15    14    16    1
   16    14    17    1
   17    17    18    1
   18    17    19    1
   19    17    20    1
   20    20    21    1
   21    20    22    1
   22    20    23    1
   23    23    24    1
   24    23    25    1
   25    23    26    1
@<TRIPOS>SUBSTRUCTURE
       1 MOL1            1 RESIDUE      1      MOL     
@<SCITEGIC>MOL_PROPERTY
VM2 Rank
SciTegic.value.IntegerValue
21

@<SCITEGIC>MOL_PROPERTY
Conf_Id
SciTegic.value.IntegerValue
1018

@<SCITEGIC>MOL_PROPERTY
Probability
SciTegic.value.DoubleValue
1.47

@<SCITEGIC>MOL_PROPERTY
Sum Probability
SciTegic.value.DoubleValue
54.57

@<SCITEGIC>MOL_PROPERTY
Delta G
SciTegic.value.DoubleValue
0.952

@<SCITEGIC>MOL_PROPERTY
G
SciTegic.value.DoubleValue
49.213

@<SCITEGIC>MOL_PROPERTY
E
SciTegic.value.DoubleValue
16.657

@<SCITEGIC>MOL_PROPERTY
-TS
SciTegic.value.DoubleValue
32.557

@<SCITEGIC>MOL_PROPERTY
U+W
SciTegic.value.DoubleValue
-4.805

@<SCITEGIC>MOL_PROPERTY
U
SciTegic.value.DoubleValue
48.735

@<SCITEGIC>MOL_PROPERTY
W
SciTegic.value.DoubleValue
-53.540

@<SCITEGIC>MOL_PROPERTY
W(PB)
SciTegic.value.DoubleValue
-55.860

@<SCITEGIC>MOL_PROPERTY
W(SA)
SciTegic.value.DoubleValue
2.320

@<SCITEGIC>MOL_PROPERTY
Valence
SciTegic.value.DoubleValue
2.803

@<SCITEGIC>MOL_PROPERTY
Coulomb
SciTegic.value.DoubleValue
45.123

@<SCITEGIC>MOL_PROPERTY
VdW
SciTegic.value.DoubleValue
0.809

@<SCITEGIC>MOL_PROPERTY
VdW6
SciTegic.value.DoubleValue
-6.953

@<SCITEGIC>MOL_PROPERTY
VdW12
SciTegic.value.DoubleValue
7.762

@<SCITEGIC>MOL_PROPERTY
Bond
SciTegic.value.DoubleValue
0.188

@<SCITEGIC>MOL_PROPERTY
Angle
SciTegic.value.DoubleValue
0.699

@<SCITEGIC>MOL_PROPERTY
Pdih
SciTegic.value.DoubleValue
1.917

@<SCITEGIC>MOL_PROPERTY
Idih
SciTegic.value.DoubleValue
0.000

@<SCITEGIC>MOL_PROPERTY
Tether
SciTegic.value.DoubleValue
0.000

@<TRIPOS>MOLECULE
guest-s14_vm2.mol2 : vm2 ligand conformer 22
          26          25           1
SMALL
USER_CHARGES
 
@<TRIPOS>ATOM
       1    C1      20.770266   19.765794   19.472763 C.3        1 MOL1        -0.2400
       2    H1      20.126592   20.652830   19.408778 H          1 MOL1         0.0971
       3    H2      21.789918   20.068973   19.201786 H          1 MOL1         0.0971
       4    H3      20.425628   19.038588   18.726020 H          1 MOL1         0.0971
       5    C2      20.740726   19.160673   20.892353 C.3        1 MOL1        -0.1385
       6    H4      21.130099   19.901678   21.602880 H          1 MOL1         0.0960
       7    H5      21.415455   18.294180   20.932878 H          1 MOL1         0.0960
       8    C3      19.311537   18.729551   21.298473 C.3        1 MOL1        -0.1409
       9    H6      18.649355   19.606261   21.310350 H          1 MOL1         0.0960
      10    H7      18.911939   18.052402   20.530920 H          1 MOL1         0.0960
      11    C4      19.245622   18.010402   22.668331 C.3        1 MOL1        -0.1409
      12    H8      19.896976   17.125666   22.650785 H          1 MOL1         0.0960
      13    H9      18.222652   17.637073   22.814982 H          1 MOL1         0.0960
      14    C5      19.627634   18.917103   23.863078 C.3        1 MOL1        -0.1409
      15    H10     20.671905   19.238380   23.764028 H          1 MOL1         0.0960
      16    H11     19.009253   19.825288   23.846826 H          1 MOL1         0.0960
      17    C6      19.438757   18.190247   25.215723 C.3        1 MOL1        -0.1450
      18    H12     20.073617   17.294980   25.253717 H          1 MOL1         0.0960
      19    H13     18.400713   17.841985   25.300087 H          1 MOL1         0.0960
      20    C7      19.748794   19.092750   26.425636 C.3        1 MOL1         0.0172
      21    H14     19.123736   19.988939   26.386195 H          1 MOL1         0.0934
      22    H15     19.515229   18.554657   27.348386 H          1 MOL1         0.0934
      23    N1      21.197663   19.532481   26.504644 N.4        1 MOL1        -0.5956
      24    H16     21.835530   18.732257   26.566349 H          1 MOL1         0.3624
      25    H17     21.372838   20.119139   27.327747 H          1 MOL1         0.3624
      26    H18     21.474272   20.078485   25.682941 H          1 MOL1         0.3624
@<TRIPOS>BOND
    1     1     2    1
    2     1     3    1
    3     1     4    1
    4     1     5    1
    5     5     6    1
    6     5     7    1
    7     5     8    1
    8     8     9    1
    9     8    10    1
   10     8    11    1
   11    11    12    1
   12    11    13    1
   13    11    14    1
   14    14    15    1
   15    14    16    1
   16    14    17    1
   17    17    18    1
   18    17    19    1
   19    17    20    1
   20    20    21    1
   21    20    22    1
   22    20    23    1
   23    23    24    1
   24    23    25    1
   25    23    26    1
@<TRIPOS>SUBSTRUCTURE
       1 MOL1            1 RESIDUE      1      MOL     
@<SCITEGIC>MOL_PROPERTY
VM2 Rank
SciTegic.value.IntegerValue
22

@<SCITEGIC>MOL_PROPERTY
Conf_Id
SciTegic.value.IntegerValue
1430

@<SCITEGIC>MOL_PROPERTY
Probability
SciTegic.value.DoubleValue
1.47

@<SCITEGIC>MOL_PROPERTY
Sum Probability
SciTegic.value.DoubleValue
56.03

@<SCITEGIC>MOL_PROPERTY
Delta G
SciTegic.value.DoubleValue
0.955

@<SCITEGIC>MOL_PROPERTY
G
SciTegic.value.DoubleValue
49.216

@<SCITEGIC>MOL_PROPERTY
E
SciTegic.value.DoubleValue
16.667

@<SCITEGIC>MOL_PROPERTY
-TS
SciTegic.value.DoubleValue
32.549

@<SCITEGIC>MOL_PROPERTY
U+W
SciTegic.value.DoubleValue
-4.795

@<SCITEGIC>MOL_PROPERTY
U
SciTegic.value.DoubleValue
48.945

@<SCITEGIC>MOL_PROPERTY
W
SciTegic.value.DoubleValue
-53.739

@<SCITEGIC>MOL_PROPERTY
W(PB)
SciTegic.value.DoubleValue
-56.050

@<SCITEGIC>MOL_PROPERTY
W(SA)
SciTegic.value.DoubleValue
2.311

@<SCITEGIC>MOL_PROPERTY
Valence
SciTegic.value.DoubleValue
2.802

@<SCITEGIC>MOL_PROPERTY
Coulomb
SciTegic.value.DoubleValue
45.335

@<SCITEGIC>MOL_PROPERTY
VdW
SciTegic.value.DoubleValue
0.807

@<SCITEGIC>MOL_PROPERTY
VdW6
SciTegic.value.DoubleValue
-6.962

@<SCITEGIC>MOL_PROPERTY
VdW12
SciTegic.value.DoubleValue
7.769

@<SCITEGIC>MOL_PROPERTY
Bond
SciTegic.value.DoubleValue
0.189

@<SCITEGIC>MOL_PROPERTY
Angle
SciTegic.value.DoubleValue
0.696

@<SCITEGIC>MOL_PROPERTY
Pdih
SciTegic.value.DoubleValue
1.917

@<SCITEGIC>MOL_PROPERTY
Idih
SciTegic.value.DoubleValue
0.000

@<SCITEGIC>MOL_PROPERTY
Tether
SciTegic.value.DoubleValue
0.000

@<TRIPOS>MOLECULE
guest-s14_vm2.mol2 : vm2 ligand conformer 23
          26          25           1
SMALL
USER_CHARGES
 
@<TRIPOS>ATOM
       1    C1      20.093325   19.806761   19.248537 C.3        1 MOL1        -0.2400
       2    H1      20.697010   20.682241   19.521162 H          1 MOL1         0.0971
       3    H2      20.396657   19.488344   18.242733 H          1 MOL1         0.0971
       4    H3      19.041638   20.118043   19.200603 H          1 MOL1         0.0971
       5    C2      20.286951   18.660989   20.264385 C.3        1 MOL1        -0.1385
       6    H4      21.340856   18.349195   20.265920 H          1 MOL1         0.0960
       7    H5      19.698778   17.788884   19.945970 H          1 MOL1         0.0960
       8    C3      19.866149   19.082693   21.689736 C.3        1 MOL1        -0.1409
       9    H6      20.453976   19.959502   21.990749 H          1 MOL1         0.0960
      10    H7      18.811632   19.391190   21.683369 H          1 MOL1         0.0960
      11    C4      20.064121   17.935512   22.709747 C.3        1 MOL1        -0.1409
      12    H8      21.127439   17.663251   22.760241 H          1 MOL1         0.0960
      13    H9      19.534482   17.042814   22.349217 H          1 MOL1         0.0960
      14    C5      19.546348   18.270441   24.130331 C.3        1 MOL1        -0.1409
      15    H10     18.481320   18.536291   24.080399 H          1 MOL1         0.0960
      16    H11     19.608499   17.359187   24.739702 H          1 MOL1         0.0960
      17    C6      20.336158   19.408218   24.824930 C.3        1 MOL1        -0.1450
      18    H12     20.242552   20.334277   24.244390 H          1 MOL1         0.0960
      19    H13     21.405726   19.161305   24.853863 H          1 MOL1         0.0960
      20    C7      19.835399   19.692009   26.254434 C.3        1 MOL1         0.0172
      21    H14     20.360378   20.563288   26.655469 H          1 MOL1         0.0934
      22    H15     18.766157   19.919193   26.231702 H          1 MOL1         0.0934
      23    N1      20.052549   18.542378   27.218899 N.4        1 MOL1        -0.5956
      24    H16     19.721951   18.769957   28.162952 H          1 MOL1         0.3624
      25    H17     21.044337   18.295947   27.300450 H          1 MOL1         0.3624
      26    H18     19.553786   17.697937   26.922221 H          1 MOL1         0.3624
@<TRIPOS>BOND
    1     1     2    1
    2     1     3    1
    3     1     4    1
    4     1     5    1
    5     5     6    1
    6     5     7    1
    7     5     8    1
    8     8     9    1
    9     8    10    1
   10     8    11    1
   11    11    12    1
   12    11    13    1
   13    11    14    1
   14    14    15    1
   15    14    16    1
   16    14    17    1
   17    17    18    1
   18    17    19    1
   19    17    20    1
   20    20    21    1
   21    20    22    1
   22    20    23    1
   23    23    24    1
   24    23    25    1
   25    23    26    1
@<TRIPOS>SUBSTRUCTURE
       1 MOL1            1 RESIDUE      1      MOL     
@<SCITEGIC>MOL_PROPERTY
VM2 Rank
SciTegic.value.IntegerValue
23

@<SCITEGIC>MOL_PROPERTY
Conf_Id
SciTegic.value.IntegerValue
1087

@<SCITEGIC>MOL_PROPERTY
Probability
SciTegic.value.DoubleValue
1.42

@<SCITEGIC>MOL_PROPERTY
Sum Probability
SciTegic.value.DoubleValue
57.46

@<SCITEGIC>MOL_PROPERTY
Delta G
SciTegic.value.DoubleValue
0.973

@<SCITEGIC>MOL_PROPERTY
G
SciTegic.value.DoubleValue
49.234

@<SCITEGIC>MOL_PROPERTY
E
SciTegic.value.DoubleValue
16.700

@<SCITEGIC>MOL_PROPERTY
-TS
SciTegic.value.DoubleValue
32.534

@<SCITEGIC>MOL_PROPERTY
U+W
SciTegic.value.DoubleValue
-4.762

@<SCITEGIC>MOL_PROPERTY
U
SciTegic.value.DoubleValue
48.582

@<SCITEGIC>MOL_PROPERTY
W
SciTegic.value.DoubleValue
-53.345

@<SCITEGIC>MOL_PROPERTY
W(PB)
SciTegic.value.DoubleValue
-55.664

@<SCITEGIC>MOL_PROPERTY
W(SA)
SciTegic.value.DoubleValue
2.319

@<SCITEGIC>MOL_PROPERTY
Valence
SciTegic.value.DoubleValue
2.825

@<SCITEGIC>MOL_PROPERTY
Coulomb
SciTegic.value.DoubleValue
44.916

@<SCITEGIC>MOL_PROPERTY
VdW
SciTegic.value.DoubleValue
0.842

@<SCITEGIC>MOL_PROPERTY
VdW6
SciTegic.value.DoubleValue
-6.929

@<SCITEGIC>MOL_PROPERTY
VdW12
SciTegic.value.DoubleValue
7.771

@<SCITEGIC>MOL_PROPERTY
Bond
SciTegic.value.DoubleValue
0.195

@<SCITEGIC>MOL_PROPERTY
Angle
SciTegic.value.DoubleValue
0.721

@<SCITEGIC>MOL_PROPERTY
Pdih
SciTegic.value.DoubleValue
1.909

@<SCITEGIC>MOL_PROPERTY
Idih
SciTegic.value.DoubleValue
0.000

@<SCITEGIC>MOL_PROPERTY
Tether
SciTegic.value.DoubleValue
0.000

@<TRIPOS>MOLECULE
guest-s14_vm2.mol2 : vm2 ligand conformer 24
          26          25           1
SMALL
USER_CHARGES
 
@<TRIPOS>ATOM
       1    C1      19.355662   19.320364   19.223911 C.3        1 MOL1        -0.2400
       2    H1      19.485068   20.410511   19.215457 H          1 MOL1         0.0971
       3    H2      19.575752   18.947090   18.215313 H          1 MOL1         0.0971
       4    H3      18.301779   19.102763   19.441179 H          1 MOL1         0.0971
       5    C2      20.284710   18.659533   20.264298 C.3        1 MOL1        -0.1385
       6    H4      21.331527   18.865675   20.000522 H          1 MOL1         0.0960
       7    H5      20.157105   17.568566   20.226312 H          1 MOL1         0.0960
       8    C3      19.996307   19.168509   21.694087 C.3        1 MOL1        -0.1409
       9    H6      20.127359   20.258892   21.727358 H          1 MOL1         0.0960
      10    H7      18.946119   18.965042   21.940360 H          1 MOL1         0.0960
      11    C4      20.924768   18.503078   22.738501 C.3        1 MOL1        -0.1409
      12    H8      21.969469   18.648689   22.430598 H          1 MOL1         0.0960
      13    H9      20.754946   17.417538   22.747765 H          1 MOL1         0.0960
      14    C5      20.754313   19.067073   24.170696 C.3        1 MOL1        -0.1409
      15    H10     21.538585   18.632113   24.804184 H          1 MOL1         0.0960
      16    H11     20.930564   20.151654   24.162244 H          1 MOL1         0.0960
      17    C6      19.366840   18.768727   24.792560 C.3        1 MOL1        -0.1450
      18    H12     19.172451   17.688071   24.779367 H          1 MOL1         0.0960
      19    H13     18.579957   19.237418   24.188808 H          1 MOL1         0.0960
      20    C7      19.236205   19.296817   26.234377 C.3        1 MOL1         0.0172
      21    H14     19.448198   20.369230   26.254329 H          1 MOL1         0.0934
      22    H15     18.211175   19.145593   26.583668 H          1 MOL1         0.0934
      23    N1      20.162196   18.614898   27.222570 N.4        1 MOL1        -0.5956
      24    H16     21.147427   18.749453   26.975434 H          1 MOL1         0.3624
      25    H17     19.995570   17.604248   27.265518 H          1 MOL1         0.3624
      26    H18     20.038983   18.979369   28.173518 H          1 MOL1         0.3624
@<TRIPOS>BOND
    1     1     2    1
    2     1     3    1
    3     1     4    1
    4     1     5    1
    5     5     6    1
    6     5     7    1
    7     5     8    1
    8     8     9    1
    9     8    10    1
   10     8    11    1
   11    11    12    1
   12    11    13    1
   13    11    14    1
   14    14    15    1
   15    14    16    1
   16    14    17    1
   17    17    18    1
   18    17    19    1
   19    17    20    1
   20    20    21    1
   21    20    22    1
   22    20    23    1
   23    23    24    1
   24    23    25    1
   25    23    26    1
@<TRIPOS>SUBSTRUCTURE
       1 MOL1            1 RESIDUE      1      MOL     
@<SCITEGIC>MOL_PROPERTY
VM2 Rank
SciTegic.value.IntegerValue
24

@<SCITEGIC>MOL_PROPERTY
Conf_Id
SciTegic.value.IntegerValue
1095

@<SCITEGIC>MOL_PROPERTY
Probability
SciTegic.value.DoubleValue
1.38

@<SCITEGIC>MOL_PROPERTY
Sum Probability
SciTegic.value.DoubleValue
58.84

@<SCITEGIC>MOL_PROPERTY
Delta G
SciTegic.value.DoubleValue
0.990

@<SCITEGIC>MOL_PROPERTY
G
SciTegic.value.DoubleValue
49.251

@<SCITEGIC>MOL_PROPERTY
E
SciTegic.value.DoubleValue
16.717

@<SCITEGIC>MOL_PROPERTY
-TS
SciTegic.value.DoubleValue
32.534

@<SCITEGIC>MOL_PROPERTY
U+W
SciTegic.value.DoubleValue
-4.745

@<SCITEGIC>MOL_PROPERTY
U
SciTegic.value.DoubleValue
48.583

@<SCITEGIC>MOL_PROPERTY
W
SciTegic.value.DoubleValue
-53.328

@<SCITEGIC>MOL_PROPERTY
W(PB)
SciTegic.value.DoubleValue
-55.653

@<SCITEGIC>MOL_PROPERTY
W(SA)
SciTegic.value.DoubleValue
2.326

@<SCITEGIC>MOL_PROPERTY
Valence
SciTegic.value.DoubleValue
2.825

@<SCITEGIC>MOL_PROPERTY
Coulomb
SciTegic.value.DoubleValue
44.916

@<SCITEGIC>MOL_PROPERTY
VdW
SciTegic.value.DoubleValue
0.842

@<SCITEGIC>MOL_PROPERTY
VdW6
SciTegic.value.DoubleValue
-6.929

@<SCITEGIC>MOL_PROPERTY
VdW12
SciTegic.value.DoubleValue
7.771

@<SCITEGIC>MOL_PROPERTY
Bond
SciTegic.value.DoubleValue
0.195

@<SCITEGIC>MOL_PROPERTY
Angle
SciTegic.value.DoubleValue
0.721

@<SCITEGIC>MOL_PROPERTY
Pdih
SciTegic.value.DoubleValue
1.909

@<SCITEGIC>MOL_PROPERTY
Idih
SciTegic.value.DoubleValue
0.000

@<SCITEGIC>MOL_PROPERTY
Tether
SciTegic.value.DoubleValue
0.000

@<TRIPOS>MOLECULE
guest-s14_vm2.mol2 : vm2 ligand conformer 25
          26          25           1
SMALL
USER_CHARGES
 
@<TRIPOS>ATOM
       1    C1      19.117006   18.675476   19.417475 C.3        1 MOL1        -0.2400
       2    H1      18.557804   19.618246   19.356487 H          1 MOL1         0.0971
       3    H2      19.954985   18.728536   18.710223 H          1 MOL1         0.0971
       4    H3      18.450904   17.866681   19.090069 H          1 MOL1         0.0971
       5    C2      19.618454   18.420362   20.854746 C.3        1 MOL1        -0.1385
       6    H4      20.147630   17.457854   20.890243 H          1 MOL1         0.0960
       7    H5      18.751929   18.332822   21.523342 H          1 MOL1         0.0960
       8    C3      20.556617   19.550709   21.340076 C.3        1 MOL1        -0.1409
       9    H6      21.371214   19.674474   20.613124 H          1 MOL1         0.0960
      10    H7      20.010738   20.504131   21.355898 H          1 MOL1         0.0960
      11    C4      21.179272   19.285653   22.732942 C.3        1 MOL1        -0.1409
      12    H8      21.917134   20.073493   22.938409 H          1 MOL1         0.0960
      13    H9      21.736842   18.339071   22.712280 H          1 MOL1         0.0960
      14    C5      20.140860   19.255701   23.880227 C.3        1 MOL1        -0.1409
      15    H10     19.550357   20.182270   23.864861 H          1 MOL1         0.0960
      16    H11     19.440235   18.426298   23.722914 H          1 MOL1         0.0960
      17    C6      20.819692   19.101146   25.261872 C.3        1 MOL1        -0.1450
      18    H12     21.543222   19.914737   25.405099 H          1 MOL1         0.0960
      19    H13     21.390972   18.163944   25.297750 H          1 MOL1         0.0960
      20    C7      19.812690   19.134999   26.427774 C.3        1 MOL1         0.0172
      21    H14     20.355717   19.109283   27.376469 H          1 MOL1         0.0934
      22    H15     19.236651   20.063520   26.389876 H          1 MOL1         0.0934
      23    N1      18.836410   17.974956   26.425888 N.4        1 MOL1        -0.5956
      24    H16     18.190532   18.019995   27.221606 H          1 MOL1         0.3624
      25    H17     19.318253   17.071810   26.482394 H          1 MOL1         0.3624
      26    H18     18.264456   17.961187   25.575883 H          1 MOL1         0.3624
@<TRIPOS>BOND
    1     1     2    1
    2     1     3    1
    3     1     4    1
    4     1     5    1
    5     5     6    1
    6     5     7    1
    7     5     8    1
    8     8     9    1
    9     8    10    1
   10     8    11    1
   11    11    12    1
   12    11    13    1
   13    11    14    1
   14    14    15    1
   15    14    16    1
   16    14    17    1
   17    17    18    1
   18    17    19    1
   19    17    20    1
   20    20    21    1
   21    20    22    1
   22    20    23    1
   23    23    24    1
   24    23    25    1
   25    23    26    1
@<TRIPOS>SUBSTRUCTURE
       1 MOL1            1 RESIDUE      1      MOL     
@<SCITEGIC>MOL_PROPERTY
VM2 Rank
SciTegic.value.IntegerValue
25

@<SCITEGIC>MOL_PROPERTY
Conf_Id
SciTegic.value.IntegerValue
1451

@<SCITEGIC>MOL_PROPERTY
Probability
SciTegic.value.DoubleValue
1.28

@<SCITEGIC>MOL_PROPERTY
Sum Probability
SciTegic.value.DoubleValue
60.12

@<SCITEGIC>MOL_PROPERTY
Delta G
SciTegic.value.DoubleValue
1.038

@<SCITEGIC>MOL_PROPERTY
G
SciTegic.value.DoubleValue
49.299

@<SCITEGIC>MOL_PROPERTY
E
SciTegic.value.DoubleValue
16.750

@<SCITEGIC>MOL_PROPERTY
-TS
SciTegic.value.DoubleValue
32.549

@<SCITEGIC>MOL_PROPERTY
U+W
SciTegic.value.DoubleValue
-4.712

@<SCITEGIC>MOL_PROPERTY
U
SciTegic.value.DoubleValue
48.944

@<SCITEGIC>MOL_PROPERTY
W
SciTegic.value.DoubleValue
-53.656

@<SCITEGIC>MOL_PROPERTY
W(PB)
SciTegic.value.DoubleValue
-55.990

@<SCITEGIC>MOL_PROPERTY
W(SA)
SciTegic.value.DoubleValue
2.334

@<SCITEGIC>MOL_PROPERTY
Valence
SciTegic.value.DoubleValue
2.803

@<SCITEGIC>MOL_PROPERTY
Coulomb
SciTegic.value.DoubleValue
45.335

@<SCITEGIC>MOL_PROPERTY
VdW
SciTegic.value.DoubleValue
0.807

@<SCITEGIC>MOL_PROPERTY
VdW6
SciTegic.value.DoubleValue
-6.961

@<SCITEGIC>MOL_PROPERTY
VdW12
SciTegic.value.DoubleValue
7.768

@<SCITEGIC>MOL_PROPERTY
Bond
SciTegic.value.DoubleValue
0.189

@<SCITEGIC>MOL_PROPERTY
Angle
SciTegic.value.DoubleValue
0.696

@<SCITEGIC>MOL_PROPERTY
Pdih
SciTegic.value.DoubleValue
1.917

@<SCITEGIC>MOL_PROPERTY
Idih
SciTegic.value.DoubleValue
0.000

@<SCITEGIC>MOL_PROPERTY
Tether
SciTegic.value.DoubleValue
0.000

@<TRIPOS>MOLECULE
guest-s14_vm2.mol2 : vm2 ligand conformer 26
          26          25           1
SMALL
USER_CHARGES
 
@<TRIPOS>ATOM
       1    C1      21.049974   20.067521   20.177426 C.3        1 MOL1        -0.2400
       2    H1      21.716120   20.130989   21.046699 H          1 MOL1         0.0971
       3    H2      21.674075   20.145001   19.277742 H          1 MOL1         0.0971
       4    H3      20.377117   20.934692   20.194809 H          1 MOL1         0.0971
       5    C2      20.251287   18.744301   20.168950 C.3        1 MOL1        -0.1385
       6    H4      20.946176   17.893026   20.183486 H          1 MOL1         0.0960
       7    H5      19.696549   18.671981   19.222992 H          1 MOL1         0.0960
       8    C3      19.249227   18.622233   21.342335 C.3        1 MOL1        -0.1409
       9    H6      18.544061   19.464291   21.311573 H          1 MOL1         0.0960
      10    H7      18.650752   17.712490   21.195712 H          1 MOL1         0.0960
      11    C4      19.929689   18.561832   22.730981 C.3        1 MOL1        -0.1409
      12    H8      20.476949   19.495271   22.912493 H          1 MOL1         0.0960
      13    H9      20.669311   17.749431   22.741031 H          1 MOL1         0.0960
      14    C5      18.899345   18.336385   23.863619 C.3        1 MOL1        -0.1409
      15    H10     18.174812   19.162545   23.875349 H          1 MOL1         0.0960
      16    H11     18.325559   17.423021   23.654071 H          1 MOL1         0.0960
      17    C6      19.551178   18.202047   25.259974 C.3        1 MOL1        -0.1450
      18    H12     20.258591   17.362072   25.257765 H          1 MOL1         0.0960
      19    H13     18.772670   17.955502   25.994197 H          1 MOL1         0.0960
      20    C7      20.274140   19.486940   25.705862 C.3        1 MOL1         0.0172
      21    H14     21.081906   19.719014   25.007069 H          1 MOL1         0.0934
      22    H15     19.569825   20.323198   25.708676 H          1 MOL1         0.0934
      23    N1      20.876162   19.377740   27.091852 N.4        1 MOL1        -0.5956
      24    H16     20.163551   19.187512   27.804040 H          1 MOL1         0.3624
      25    H17     21.352293   20.242856   27.369805 H          1 MOL1         0.3624
      26    H18     21.568883   18.624063   27.149323 H          1 MOL1         0.3624
@<TRIPOS>BOND
    1     1     2    1
    2     1     3    1
    3     1     4    1
    4     1     5    1
    5     5     6    1
    6     5     7    1
    7     5     8    1
    8     8     9    1
    9     8    10    1
   10     8    11    1
   11    11    12    1
   12    11    13    1
   13    11    14    1
   14    14    15    1
   15    14    16    1
   16    14    17    1
   17    17    18    1
   18    17    19    1
   19    17    20    1
   20    20    21    1
   21    20    22    1
   22    20    23    1
   23    23    24    1
   24    23    25    1
   25    23    26    1
@<TRIPOS>SUBSTRUCTURE
       1 MOL1            1 RESIDUE      1      MOL     
@<SCITEGIC>MOL_PROPERTY
VM2 Rank
SciTegic.value.IntegerValue
26

@<SCITEGIC>MOL_PROPERTY
Conf_Id
SciTegic.value.IntegerValue
762

@<SCITEGIC>MOL_PROPERTY
Probability
SciTegic.value.DoubleValue
1.25

@<SCITEGIC>MOL_PROPERTY
Sum Probability
SciTegic.value.DoubleValue
61.37

@<SCITEGIC>MOL_PROPERTY
Delta G
SciTegic.value.DoubleValue
1.052

@<SCITEGIC>MOL_PROPERTY
G
SciTegic.value.DoubleValue
49.313

@<SCITEGIC>MOL_PROPERTY
E
SciTegic.value.DoubleValue
16.753

@<SCITEGIC>MOL_PROPERTY
-TS
SciTegic.value.DoubleValue
32.561

@<SCITEGIC>MOL_PROPERTY
U+W
SciTegic.value.DoubleValue
-4.709

@<SCITEGIC>MOL_PROPERTY
U
SciTegic.value.DoubleValue
48.723

@<SCITEGIC>MOL_PROPERTY
W
SciTegic.value.DoubleValue
-53.433

@<SCITEGIC>MOL_PROPERTY
W(PB)
SciTegic.value.DoubleValue
-55.777

@<SCITEGIC>MOL_PROPERTY
W(SA)
SciTegic.value.DoubleValue
2.344

@<SCITEGIC>MOL_PROPERTY
Valence
SciTegic.value.DoubleValue
2.962

@<SCITEGIC>MOL_PROPERTY
Coulomb
SciTegic.value.DoubleValue
44.993

@<SCITEGIC>MOL_PROPERTY
VdW
SciTegic.value.DoubleValue
0.768

@<SCITEGIC>MOL_PROPERTY
VdW6
SciTegic.value.DoubleValue
-7.008

@<SCITEGIC>MOL_PROPERTY
VdW12
SciTegic.value.DoubleValue
7.776

@<SCITEGIC>MOL_PROPERTY
Bond
SciTegic.value.DoubleValue
0.188

@<SCITEGIC>MOL_PROPERTY
Angle
SciTegic.value.DoubleValue
0.756

@<SCITEGIC>MOL_PROPERTY
Pdih
SciTegic.value.DoubleValue
2.018

@<SCITEGIC>MOL_PROPERTY
Idih
SciTegic.value.DoubleValue
0.000

@<SCITEGIC>MOL_PROPERTY
Tether
SciTegic.value.DoubleValue
0.000

@<TRIPOS>MOLECULE
guest-s14_vm2.mol2 : vm2 ligand conformer 27
          26          25           1
SMALL
USER_CHARGES
 
@<TRIPOS>ATOM
       1    C1      18.853857   18.587878   19.736437 C.3        1 MOL1        -0.2400
       2    H1      18.703494   19.636281   19.447511 H          1 MOL1         0.0971
       3    H2      18.960673   17.997083   18.817423 H          1 MOL1         0.0971
       4    H3      17.949978   18.243175   20.255480 H          1 MOL1         0.0971
       5    C2      20.101262   18.432789   20.632014 C.3        1 MOL1        -0.1385
       6    H4      20.992384   18.752484   20.073813 H          1 MOL1         0.0960
       7    H5      20.244523   17.371008   20.876983 H          1 MOL1         0.0960
       8    C3      19.977017   19.255775   21.933336 C.3        1 MOL1        -0.1409
       9    H6      19.836320   20.316513   21.683872 H          1 MOL1         0.0960
      10    H7      19.078901   18.933006   22.476101 H          1 MOL1         0.0960
      11    C4      21.224874   19.097149   22.834695 C.3        1 MOL1        -0.1409
      12    H8      22.121013   19.352977   22.252605 H          1 MOL1         0.0960
      13    H9      21.342395   18.043859   23.122789 H          1 MOL1         0.0960
      14    C5      21.193906   19.992803   24.100197 C.3        1 MOL1        -0.1409
      15    H10     22.130861   19.849243   24.656036 H          1 MOL1         0.0960
      16    H11     21.183218   21.048052   23.794276 H          1 MOL1         0.0960
      17    C6      20.001212   19.733973   25.054172 C.3        1 MOL1        -0.1450
      18    H12     19.058964   20.003726   24.560433 H          1 MOL1         0.0960
      19    H13     20.093281   20.398319   25.923655 H          1 MOL1         0.0960
      20    C7      19.933414   18.274495   25.540928 C.3        1 MOL1         0.0172
      21    H14     19.799831   17.606454   24.686030 H          1 MOL1         0.0934
      22    H15     20.868287   18.010142   26.042397 H          1 MOL1         0.0934
      23    N1      18.795457   18.024138   26.509221 N.4        1 MOL1        -0.5956
      24    H16     18.876283   18.603328   27.351346 H          1 MOL1         0.3624
      25    H17     18.768295   17.047103   26.820663 H          1 MOL1         0.3624
      26    H18     17.883307   18.228916   26.088391 H          1 MOL1         0.3624
@<TRIPOS>BOND
    1     1     2    1
    2     1     3    1
    3     1     4    1
    4     1     5    1
    5     5     6    1
    6     5     7    1
    7     5     8    1
    8     8     9    1
    9     8    10    1
   10     8    11    1
   11    11    12    1
   12    11    13    1
   13    11    14    1
   14    14    15    1
   15    14    16    1
   16    14    17    1
   17    17    18    1
   18    17    19    1
   19    17    20    1
   20    20    21    1
   21    20    22    1
   22    20    23    1
   23    23    24    1
   24    23    25    1
   25    23    26    1
@<TRIPOS>SUBSTRUCTURE
       1 MOL1            1 RESIDUE      1      MOL     
@<SCITEGIC>MOL_PROPERTY
VM2 Rank
SciTegic.value.IntegerValue
27

@<SCITEGIC>MOL_PROPERTY
Conf_Id
SciTegic.value.IntegerValue
731

@<SCITEGIC>MOL_PROPERTY
Probability
SciTegic.value.DoubleValue
1.20

@<SCITEGIC>MOL_PROPERTY
Sum Probability
SciTegic.value.DoubleValue
62.56

@<SCITEGIC>MOL_PROPERTY
Delta G
SciTegic.value.DoubleValue
1.077

@<SCITEGIC>MOL_PROPERTY
G
SciTegic.value.DoubleValue
49.338

@<SCITEGIC>MOL_PROPERTY
E
SciTegic.value.DoubleValue
16.648

@<SCITEGIC>MOL_PROPERTY
-TS
SciTegic.value.DoubleValue
32.690

@<SCITEGIC>MOL_PROPERTY
U+W
SciTegic.value.DoubleValue
-4.814

@<SCITEGIC>MOL_PROPERTY
U
SciTegic.value.DoubleValue
48.956

@<SCITEGIC>MOL_PROPERTY
W
SciTegic.value.DoubleValue
-53.770

@<SCITEGIC>MOL_PROPERTY
W(PB)
SciTegic.value.DoubleValue
-56.093

@<SCITEGIC>MOL_PROPERTY
W(SA)
SciTegic.value.DoubleValue
2.323

@<SCITEGIC>MOL_PROPERTY
Valence
SciTegic.value.DoubleValue
2.916

@<SCITEGIC>MOL_PROPERTY
Coulomb
SciTegic.value.DoubleValue
45.446

@<SCITEGIC>MOL_PROPERTY
VdW
SciTegic.value.DoubleValue
0.595

@<SCITEGIC>MOL_PROPERTY
VdW6
SciTegic.value.DoubleValue
-7.361

@<SCITEGIC>MOL_PROPERTY
VdW12
SciTegic.value.DoubleValue
7.956

@<SCITEGIC>MOL_PROPERTY
Bond
SciTegic.value.DoubleValue
0.196

@<SCITEGIC>MOL_PROPERTY
Angle
SciTegic.value.DoubleValue
0.889

@<SCITEGIC>MOL_PROPERTY
Pdih
SciTegic.value.DoubleValue
1.830

@<SCITEGIC>MOL_PROPERTY
Idih
SciTegic.value.DoubleValue
0.000

@<SCITEGIC>MOL_PROPERTY
Tether
SciTegic.value.DoubleValue
0.000

@<TRIPOS>MOLECULE
guest-s14_vm2.mol2 : vm2 ligand conformer 28
          26          25           1
SMALL
USER_CHARGES
 
@<TRIPOS>ATOM
       1    C1      20.128572   17.813337   19.841667 C.3        1 MOL1        -0.2400
       2    H1      19.072614   17.907249   19.556783 H          1 MOL1         0.0971
       3    H2      20.677511   17.427310   18.973000 H          1 MOL1         0.0971
       4    H3      20.204712   17.063866   20.639133 H          1 MOL1         0.0971
       5    C2      20.707788   19.175795   20.285481 C.3        1 MOL1        -0.1385
       6    H4      20.721564   19.853343   19.420300 H          1 MOL1         0.0960
       7    H5      21.755114   19.049429   20.593516 H          1 MOL1         0.0960
       8    C3      19.903392   19.844065   21.426584 C.3        1 MOL1        -0.1409
       9    H6      20.315466   20.847381   21.602354 H          1 MOL1         0.0960
      10    H7      18.862811   19.989278   21.105084 H          1 MOL1         0.0960
      11    C4      19.934181   19.046074   22.752156 C.3        1 MOL1        -0.1409
      12    H8      20.978278   18.855483   23.033827 H          1 MOL1         0.0960
      13    H9      19.457070   18.067618   22.609523 H          1 MOL1         0.0960
      14    C5      19.208859   19.801868   23.891372 C.3        1 MOL1        -0.1409
      15    H10     19.703095   20.766932   24.070197 H          1 MOL1         0.0960
      16    H11     18.182185   20.032531   23.574879 H          1 MOL1         0.0960
      17    C6      19.152195   18.999470   25.212569 C.3        1 MOL1        -0.1450
      18    H12     18.634574   18.045833   25.043327 H          1 MOL1         0.0960
      19    H13     18.551735   19.557810   25.943077 H          1 MOL1         0.0960
      20    C7      20.547819   18.732788   25.807067 C.3        1 MOL1         0.0172
      21    H14     21.141244   18.139046   25.107066 H          1 MOL1         0.0934
      22    H15     21.062900   19.682155   25.976730 H          1 MOL1         0.0934
      23    N1      20.498195   17.985603   27.124104 N.4        1 MOL1        -0.5956
      24    H16     21.436750   17.818298   27.502933 H          1 MOL1         0.3624
      25    H17     20.047806   17.069666   27.027127 H          1 MOL1         0.3624
      26    H18     19.976476   18.504301   27.838229 H          1 MOL1         0.3624
@<TRIPOS>BOND
    1     1     2    1
    2     1     3    1
    3     1     4    1
    4     1     5    1
    5     5     6    1
    6     5     7    1
    7     5     8    1
    8     8     9    1
    9     8    10    1
   10     8    11    1
   11    11    12    1
   12    11    13    1
   13    11    14    1
   14    14    15    1
   15    14    16    1
   16    14    17    1
   17    17    18    1
   18    17    19    1
   19    17    20    1
   20    20    21    1
   21    20    22    1
   22    20    23    1
   23    23    24    1
   24    23    25    1
   25    23    26    1
@<TRIPOS>SUBSTRUCTURE
       1 MOL1            1 RESIDUE      1      MOL     
@<SCITEGIC>MOL_PROPERTY
VM2 Rank
SciTegic.value.IntegerValue
28

@<SCITEGIC>MOL_PROPERTY
Conf_Id
SciTegic.value.IntegerValue
1258

@<SCITEGIC>MOL_PROPERTY
Probability
SciTegic.value.DoubleValue
1.19

@<SCITEGIC>MOL_PROPERTY
Sum Probability
SciTegic.value.DoubleValue
63.75

@<SCITEGIC>MOL_PROPERTY
Delta G
SciTegic.value.DoubleValue
1.080

@<SCITEGIC>MOL_PROPERTY
G
SciTegic.value.DoubleValue
49.341

@<SCITEGIC>MOL_PROPERTY
E
SciTegic.value.DoubleValue
16.778

@<SCITEGIC>MOL_PROPERTY
-TS
SciTegic.value.DoubleValue
32.563

@<SCITEGIC>MOL_PROPERTY
U+W
SciTegic.value.DoubleValue
-4.684

@<SCITEGIC>MOL_PROPERTY
U
SciTegic.value.DoubleValue
48.658

@<SCITEGIC>MOL_PROPERTY
W
SciTegic.value.DoubleValue
-53.342

@<SCITEGIC>MOL_PROPERTY
W(PB)
SciTegic.value.DoubleValue
-55.670

@<SCITEGIC>MOL_PROPERTY
W(SA)
SciTegic.value.DoubleValue
2.328

@<SCITEGIC>MOL_PROPERTY
Valence
SciTegic.value.DoubleValue
2.963

@<SCITEGIC>MOL_PROPERTY
Coulomb
SciTegic.value.DoubleValue
44.927

@<SCITEGIC>MOL_PROPERTY
VdW
SciTegic.value.DoubleValue
0.768

@<SCITEGIC>MOL_PROPERTY
VdW6
SciTegic.value.DoubleValue
-6.995

@<SCITEGIC>MOL_PROPERTY
VdW12
SciTegic.value.DoubleValue
7.762

@<SCITEGIC>MOL_PROPERTY
Bond
SciTegic.value.DoubleValue
0.186

@<SCITEGIC>MOL_PROPERTY
Angle
SciTegic.value.DoubleValue
0.758

@<SCITEGIC>MOL_PROPERTY
Pdih
SciTegic.value.DoubleValue
2.019

@<SCITEGIC>MOL_PROPERTY
Idih
SciTegic.value.DoubleValue
0.000

@<SCITEGIC>MOL_PROPERTY
Tether
SciTegic.value.DoubleValue
0.000

@<TRIPOS>MOLECULE
guest-s14_vm2.mol2 : vm2 ligand conformer 29
          26          25           1
SMALL
USER_CHARGES
 
@<TRIPOS>ATOM
       1    C1      20.938730   19.964417   19.806958 C.3        1 MOL1        -0.2400
       2    H1      21.585807   20.642800   20.378197 H          1 MOL1         0.0971
       3    H2      21.482361   19.662296   18.902402 H          1 MOL1         0.0971
       4    H3      20.048030   20.524478   19.493560 H          1 MOL1         0.0971
       5    C2      20.550198   18.729457   20.647224 C.3        1 MOL1        -0.1385
       6    H4      21.458038   18.172074   20.917523 H          1 MOL1         0.0960
       7    H5      19.932977   18.054122   20.038247 H          1 MOL1         0.0960
       8    C3      19.782237   19.127099   21.927182 C.3        1 MOL1        -0.1409
       9    H6      20.405618   19.808392   22.521004 H          1 MOL1         0.0960
      10    H7      18.874384   19.681567   21.652295 H          1 MOL1         0.0960
      11    C4      19.396963   17.890192   22.773575 C.3        1 MOL1        -0.1409
      12    H8      20.305288   17.358837   23.087961 H          1 MOL1         0.0960
      13    H9      18.837784   17.185509   22.142638 H          1 MOL1         0.0960
      14    C5      18.527291   18.231825   24.011158 C.3        1 MOL1        -0.1409
      15    H10     17.575920   18.665896   23.673921 H          1 MOL1         0.0960
      16    H11     18.266546   17.297254   24.526950 H          1 MOL1         0.0960
      17    C6      19.187904   19.196809   25.027022 C.3        1 MOL1        -0.1450
      18    H12     18.501159   19.346351   25.870735 H          1 MOL1         0.0960
      19    H13     19.331495   20.184032   24.569689 H          1 MOL1         0.0960
      20    C7      20.533384   18.670709   25.560414 C.3        1 MOL1         0.0172
      21    H14     20.387357   17.692246   26.025848 H          1 MOL1         0.0934
      22    H15     21.239006   18.557228   24.733254 H          1 MOL1         0.0934
      23    N1      21.164293   19.588492   26.587467 N.4        1 MOL1        -0.5956
      24    H16     21.352396   20.520201   26.203301 H          1 MOL1         0.3624
      25    H17     22.058589   19.220041   26.929245 H          1 MOL1         0.3624
      26    H18     20.561604   19.715913   27.407039 H          1 MOL1         0.3624
@<TRIPOS>BOND
    1     1     2    1
    2     1     3    1
    3     1     4    1
    4     1     5    1
    5     5     6    1
    6     5     7    1
    7     5     8    1
    8     8     9    1
    9     8    10    1
   10     8    11    1
   11    11    12    1
   12    11    13    1
   13    11    14    1
   14    14    15    1
   15    14    16    1
   16    14    17    1
   17    17    18    1
   18    17    19    1
   19    17    20    1
   20    20    21    1
   21    20    22    1
   22    20    23    1
   23    23    24    1
   24    23    25    1
   25    23    26    1
@<TRIPOS>SUBSTRUCTURE
       1 MOL1            1 RESIDUE      1      MOL     
@<SCITEGIC>MOL_PROPERTY
VM2 Rank
SciTegic.value.IntegerValue
29

@<SCITEGIC>MOL_PROPERTY
Conf_Id
SciTegic.value.IntegerValue
914

@<SCITEGIC>MOL_PROPERTY
Probability
SciTegic.value.DoubleValue
1.18

@<SCITEGIC>MOL_PROPERTY
Sum Probability
SciTegic.value.DoubleValue
64.94

@<SCITEGIC>MOL_PROPERTY
Delta G
SciTegic.value.DoubleValue
1.084

@<SCITEGIC>MOL_PROPERTY
G
SciTegic.value.DoubleValue
49.345

@<SCITEGIC>MOL_PROPERTY
E
SciTegic.value.DoubleValue
16.654

@<SCITEGIC>MOL_PROPERTY
-TS
SciTegic.value.DoubleValue
32.691

@<SCITEGIC>MOL_PROPERTY
U+W
SciTegic.value.DoubleValue
-4.808

@<SCITEGIC>MOL_PROPERTY
U
SciTegic.value.DoubleValue
48.957

@<SCITEGIC>MOL_PROPERTY
W
SciTegic.value.DoubleValue
-53.765

@<SCITEGIC>MOL_PROPERTY
W(PB)
SciTegic.value.DoubleValue
-56.083

@<SCITEGIC>MOL_PROPERTY
W(SA)
SciTegic.value.DoubleValue
2.317

@<SCITEGIC>MOL_PROPERTY
Valence
SciTegic.value.DoubleValue
2.916

@<SCITEGIC>MOL_PROPERTY
Coulomb
SciTegic.value.DoubleValue
45.447

@<SCITEGIC>MOL_PROPERTY
VdW
SciTegic.value.DoubleValue
0.595

@<SCITEGIC>MOL_PROPERTY
VdW6
SciTegic.value.DoubleValue
-7.363

@<SCITEGIC>MOL_PROPERTY
VdW12
SciTegic.value.DoubleValue
7.958

@<SCITEGIC>MOL_PROPERTY
Bond
SciTegic.value.DoubleValue
0.196

@<SCITEGIC>MOL_PROPERTY
Angle
SciTegic.value.DoubleValue
0.889

@<SCITEGIC>MOL_PROPERTY
Pdih
SciTegic.value.DoubleValue
1.830

@<SCITEGIC>MOL_PROPERTY
Idih
SciTegic.value.DoubleValue
0.000

@<SCITEGIC>MOL_PROPERTY
Tether
SciTegic.value.DoubleValue
0.000

@<TRIPOS>MOLECULE
guest-s14_vm2.mol2 : vm2 ligand conformer 30
          26          25           1
SMALL
USER_CHARGES
 
@<TRIPOS>ATOM
       1    C1      21.144477   18.482287   19.875648 C.3        1 MOL1        -0.2400
       2    H1      21.323055   17.852276   18.994666 H          1 MOL1         0.0971
       3    H2      21.487480   19.497479   19.637404 H          1 MOL1         0.0971
       4    H3      21.765343   18.091626   20.691347 H          1 MOL1         0.0971
       5    C2      19.644959   18.475805   20.250023 C.3        1 MOL1        -0.1385
       6    H4      19.334065   17.454990   20.512754 H          1 MOL1         0.0960
       7    H5      19.057848   18.757574   19.364752 H          1 MOL1         0.0960
       8    C3      19.295234   19.443570   21.406259 C.3        1 MOL1        -0.1409
       9    H6      19.586791   20.466062   21.129200 H          1 MOL1         0.0960
      10    H7      18.203717   19.456685   21.531801 H          1 MOL1         0.0960
      11    C4      19.953925   19.059158   22.752823 C.3        1 MOL1        -0.1409
      12    H8      21.046692   19.114702   22.662657 H          1 MOL1         0.0960
      13    H9      19.704618   18.016665   22.991264 H          1 MOL1         0.0960
      14    C5      19.492637   19.988856   23.900870 C.3        1 MOL1        -0.1409
      15    H10     19.699872   21.032274   23.625612 H          1 MOL1         0.0960
      16    H11     18.403741   19.911141   24.026804 H          1 MOL1         0.0960
      17    C6      20.190060   19.683145   25.247258 C.3        1 MOL1        -0.1450
      18    H12     19.879838   20.432644   25.987495 H          1 MOL1         0.0960
      19    H13     21.277222   19.786631   25.131649 H          1 MOL1         0.0960
      20    C7      19.857764   18.278208   25.783962 C.3        1 MOL1         0.0172
      21    H14     18.775503   18.175359   25.900259 H          1 MOL1         0.0934
      22    H15     20.201820   17.520237   25.075589 H          1 MOL1         0.0934
      23    N1      20.501945   17.987972   27.124158 N.4        1 MOL1        -0.5956
      24    H16     20.197904   18.650017   27.845594 H          1 MOL1         0.3624
      25    H17     21.524661   18.042400   27.076392 H          1 MOL1         0.3624
      26    H18     20.268394   17.048556   27.463780 H          1 MOL1         0.3624
@<TRIPOS>BOND
    1     1     2    1
    2     1     3    1
    3     1     4    1
    4     1     5    1
    5     5     6    1
    6     5     7    1
    7     5     8    1
    8     8     9    1
    9     8    10    1
   10     8    11    1
   11    11    12    1
   12    11    13    1
   13    11    14    1
   14    14    15    1
   15    14    16    1
   16    14    17    1
   17    17    18    1
   18    17    19    1
   19    17    20    1
   20    20    21    1
   21    20    22    1
   22    20    23    1
   23    23    24    1
   24    23    25    1
   25    23    26    1
@<TRIPOS>SUBSTRUCTURE
       1 MOL1            1 RESIDUE      1      MOL     
@<SCITEGIC>MOL_PROPERTY
VM2 Rank
SciTegic.value.IntegerValue
30

@<SCITEGIC>MOL_PROPERTY
Conf_Id
SciTegic.value.IntegerValue
1358

@<SCITEGIC>MOL_PROPERTY
Probability
SciTegic.value.DoubleValue
1.12

@<SCITEGIC>MOL_PROPERTY
Sum Probability
SciTegic.value.DoubleValue
66.06

@<SCITEGIC>MOL_PROPERTY
Delta G
SciTegic.value.DoubleValue
1.114

@<SCITEGIC>MOL_PROPERTY
G
SciTegic.value.DoubleValue
49.376

@<SCITEGIC>MOL_PROPERTY
E
SciTegic.value.DoubleValue
16.812

@<SCITEGIC>MOL_PROPERTY
-TS
SciTegic.value.DoubleValue
32.563

@<SCITEGIC>MOL_PROPERTY
U+W
SciTegic.value.DoubleValue
-4.650

@<SCITEGIC>MOL_PROPERTY
U
SciTegic.value.DoubleValue
48.658

@<SCITEGIC>MOL_PROPERTY
W
SciTegic.value.DoubleValue
-53.308

@<SCITEGIC>MOL_PROPERTY
W(PB)
SciTegic.value.DoubleValue
-55.634

@<SCITEGIC>MOL_PROPERTY
W(SA)
SciTegic.value.DoubleValue
2.326

@<SCITEGIC>MOL_PROPERTY
Valence
SciTegic.value.DoubleValue
2.963

@<SCITEGIC>MOL_PROPERTY
Coulomb
SciTegic.value.DoubleValue
44.927

@<SCITEGIC>MOL_PROPERTY
VdW
SciTegic.value.DoubleValue
0.768

@<SCITEGIC>MOL_PROPERTY
VdW6
SciTegic.value.DoubleValue
-6.995

@<SCITEGIC>MOL_PROPERTY
VdW12
SciTegic.value.DoubleValue
7.762

@<SCITEGIC>MOL_PROPERTY
Bond
SciTegic.value.DoubleValue
0.186

@<SCITEGIC>MOL_PROPERTY
Angle
SciTegic.value.DoubleValue
0.758

@<SCITEGIC>MOL_PROPERTY
Pdih
SciTegic.value.DoubleValue
2.019

@<SCITEGIC>MOL_PROPERTY
Idih
SciTegic.value.DoubleValue
0.000

@<SCITEGIC>MOL_PROPERTY
Tether
SciTegic.value.DoubleValue
0.000

@<TRIPOS>MOLECULE
guest-s14_vm2.mol2 : vm2 ligand conformer 31
          26          25           1
SMALL
USER_CHARGES
 
@<TRIPOS>ATOM
       1    C1      18.697220   18.516193   20.098640 C.3        1 MOL1        -0.2400
       2    H1      18.164609   19.475819   20.120270 H          1 MOL1         0.0971
       3    H2      18.422784   18.000950   19.169046 H          1 MOL1         0.0971
       4    H3      18.336410   17.903138   20.933740 H          1 MOL1         0.0971
       5    C2      20.226706   18.727657   20.168200 C.3        1 MOL1        -0.1385
       6    H4      20.555401   19.237328   19.251689 H          1 MOL1         0.0960
       7    H5      20.734590   17.753115   20.176828 H          1 MOL1         0.0960
       8    C3      20.677864   19.563994   21.390021 C.3        1 MOL1        -0.1409
       9    H6      21.755366   19.759168   21.299465 H          1 MOL1         0.0960
      10    H7      20.183097   20.544758   21.366038 H          1 MOL1         0.0960
      11    C4      20.401180   18.872913   22.746807 C.3        1 MOL1        -0.1409
      12    H8      20.856365   17.872942   22.747675 H          1 MOL1         0.0960
      13    H9      19.320439   18.732819   22.873769 H          1 MOL1         0.0960
      14    C5      20.959995   19.695884   23.932450 C.3        1 MOL1        -0.1409
      15    H10     22.033944   19.869466   23.777926 H          1 MOL1         0.0960
      16    H11     20.484924   20.686608   23.952407 H          1 MOL1         0.0960
      17    C6      20.762634   19.001488   25.300515 C.3        1 MOL1        -0.1450
      18    H12     21.260285   19.597164   26.077338 H          1 MOL1         0.0960
      19    H13     21.256923   18.020881   25.291358 H          1 MOL1         0.0960
      20    C7      19.277880   18.829649   25.672552 C.3        1 MOL1         0.0172
      21    H14     18.785729   19.805910   25.682282 H          1 MOL1         0.0934
      22    H15     18.780413   18.200288   24.930198 H          1 MOL1         0.0934
      23    N1      19.077521   18.191221   27.031814 N.4        1 MOL1        -0.5956
      24    H16     18.083052   18.085849   27.260537 H          1 MOL1         0.3624
      25    H17     19.498510   18.749291   27.781841 H          1 MOL1         0.3624
      26    H18     19.495652   17.256335   27.080297 H          1 MOL1         0.3624
@<TRIPOS>BOND
    1     1     2    1
    2     1     3    1
    3     1     4    1
    4     1     5    1
    5     5     6    1
    6     5     7    1
    7     5     8    1
    8     8     9    1
    9     8    10    1
   10     8    11    1
   11    11    12    1
   12    11    13    1
   13    11    14    1
   14    14    15    1
   15    14    16    1
   16    14    17    1
   17    17    18    1
   18    17    19    1
   19    17    20    1
   20    20    21    1
   21    20    22    1
   22    20    23    1
   23    23    24    1
   24    23    25    1
   25    23    26    1
@<TRIPOS>SUBSTRUCTURE
       1 MOL1            1 RESIDUE      1      MOL     
@<SCITEGIC>MOL_PROPERTY
VM2 Rank
SciTegic.value.IntegerValue
31

@<SCITEGIC>MOL_PROPERTY
Conf_Id
SciTegic.value.IntegerValue
695

@<SCITEGIC>MOL_PROPERTY
Probability
SciTegic.value.DoubleValue
1.11

@<SCITEGIC>MOL_PROPERTY
Sum Probability
SciTegic.value.DoubleValue
67.17

@<SCITEGIC>MOL_PROPERTY
Delta G
SciTegic.value.DoubleValue
1.121

@<SCITEGIC>MOL_PROPERTY
G
SciTegic.value.DoubleValue
49.382

@<SCITEGIC>MOL_PROPERTY
E
SciTegic.value.DoubleValue
16.822

@<SCITEGIC>MOL_PROPERTY
-TS
SciTegic.value.DoubleValue
32.560

@<SCITEGIC>MOL_PROPERTY
U+W
SciTegic.value.DoubleValue
-4.640

@<SCITEGIC>MOL_PROPERTY
U
SciTegic.value.DoubleValue
48.723

@<SCITEGIC>MOL_PROPERTY
W
SciTegic.value.DoubleValue
-53.363

@<SCITEGIC>MOL_PROPERTY
W(PB)
SciTegic.value.DoubleValue
-55.684

@<SCITEGIC>MOL_PROPERTY
W(SA)
SciTegic.value.DoubleValue
2.321

@<SCITEGIC>MOL_PROPERTY
Valence
SciTegic.value.DoubleValue
2.962

@<SCITEGIC>MOL_PROPERTY
Coulomb
SciTegic.value.DoubleValue
44.993

@<SCITEGIC>MOL_PROPERTY
VdW
SciTegic.value.DoubleValue
0.768

@<SCITEGIC>MOL_PROPERTY
VdW6
SciTegic.value.DoubleValue
-7.008

@<SCITEGIC>MOL_PROPERTY
VdW12
SciTegic.value.DoubleValue
7.776

@<SCITEGIC>MOL_PROPERTY
Bond
SciTegic.value.DoubleValue
0.188

@<SCITEGIC>MOL_PROPERTY
Angle
SciTegic.value.DoubleValue
0.757

@<SCITEGIC>MOL_PROPERTY
Pdih
SciTegic.value.DoubleValue
2.018

@<SCITEGIC>MOL_PROPERTY
Idih
SciTegic.value.DoubleValue
0.000

@<SCITEGIC>MOL_PROPERTY
Tether
SciTegic.value.DoubleValue
0.000

@<TRIPOS>MOLECULE
guest-s14_vm2.mol2 : vm2 ligand conformer 32
          26          25           1
SMALL
USER_CHARGES
 
@<TRIPOS>ATOM
       1    C1      19.488175   19.029677   19.218293 C.3        1 MOL1        -0.2400
       2    H1      19.939481   18.126152   18.787959 H          1 MOL1         0.0971
       3    H2      18.488722   19.148229   18.780031 H          1 MOL1         0.0971
       4    H3      20.094283   19.892942   18.913906 H          1 MOL1         0.0971
       5    C2      19.400481   18.928447   20.755923 C.3        1 MOL1        -0.1385
       6    H4      18.764674   18.074690   21.028963 H          1 MOL1         0.0960
       7    H5      18.908164   19.829718   21.144619 H          1 MOL1         0.0960
       8    C3      20.798795   18.764753   21.397089 C.3        1 MOL1        -0.1409
       9    H6      21.303222   17.903096   20.938344 H          1 MOL1         0.0960
      10    H7      21.417566   19.642719   21.165687 H          1 MOL1         0.0960
      11    C4      20.755398   18.549113   22.929789 C.3        1 MOL1        -0.1409
      12    H8      21.774219   18.331193   23.278809 H          1 MOL1         0.0960
      13    H9      20.154733   17.656954   23.152151 H          1 MOL1         0.0960
      14    C5      20.205493   19.770624   23.708950 C.3        1 MOL1        -0.1409
      15    H10     20.750612   20.672845   23.399012 H          1 MOL1         0.0960
      16    H11     19.151059   19.939056   23.453114 H          1 MOL1         0.0960
      17    C6      20.333554   19.615466   25.242528 C.3        1 MOL1        -0.1450
      18    H12     19.999913   20.544244   25.724185 H          1 MOL1         0.0960
      19    H13     21.389442   19.482599   25.513517 H          1 MOL1         0.0960
      20    C7      19.506069   18.437899   25.790967 C.3        1 MOL1         0.0172
      21    H14     18.454271   18.571566   25.524066 H          1 MOL1         0.0934
      22    H15     19.857235   17.501610   25.349602 H          1 MOL1         0.0934
      23    N1      19.593035   18.303021   27.297461 N.4        1 MOL1        -0.5956
      24    H16     19.250409   19.142190   27.776636 H          1 MOL1         0.3624
      25    H17     20.556400   18.147973   27.612240 H          1 MOL1         0.3624
      26    H18     19.035538   17.513911   27.642261 H          1 MOL1         0.3624
@<TRIPOS>BOND
    1     1     2    1
    2     1     3    1
    3     1     4    1
    4     1     5    1
    5     5     6    1
    6     5     7    1
    7     5     8    1
    8     8     9    1
    9     8    10    1
   10     8    11    1
   11    11    12    1
   12    11    13    1
   13    11    14    1
   14    14    15    1
   15    14    16    1
   16    14    17    1
   17    17    18    1
   18    17    19    1
   19    17    20    1
   20    20    21    1
   21    20    22    1
   22    20    23    1
   23    23    24    1
   24    23    25    1
   25    23    26    1
@<TRIPOS>SUBSTRUCTURE
       1 MOL1            1 RESIDUE      1      MOL     
@<SCITEGIC>MOL_PROPERTY
VM2 Rank
SciTegic.value.IntegerValue
32

@<SCITEGIC>MOL_PROPERTY
Conf_Id
SciTegic.value.IntegerValue
1099

@<SCITEGIC>MOL_PROPERTY
Probability
SciTegic.value.DoubleValue
1.09

@<SCITEGIC>MOL_PROPERTY
Sum Probability
SciTegic.value.DoubleValue
68.26

@<SCITEGIC>MOL_PROPERTY
Delta G
SciTegic.value.DoubleValue
1.131

@<SCITEGIC>MOL_PROPERTY
G
SciTegic.value.DoubleValue
49.392

@<SCITEGIC>MOL_PROPERTY
E
SciTegic.value.DoubleValue
16.830

@<SCITEGIC>MOL_PROPERTY
-TS
SciTegic.value.DoubleValue
32.562

@<SCITEGIC>MOL_PROPERTY
U+W
SciTegic.value.DoubleValue
-4.632

@<SCITEGIC>MOL_PROPERTY
U
SciTegic.value.DoubleValue
48.732

@<SCITEGIC>MOL_PROPERTY
W
SciTegic.value.DoubleValue
-53.364

@<SCITEGIC>MOL_PROPERTY
W(PB)
SciTegic.value.DoubleValue
-55.692

@<SCITEGIC>MOL_PROPERTY
W(SA)
SciTegic.value.DoubleValue
2.328

@<SCITEGIC>MOL_PROPERTY
Valence
SciTegic.value.DoubleValue
2.987

@<SCITEGIC>MOL_PROPERTY
Coulomb
SciTegic.value.DoubleValue
45.003

@<SCITEGIC>MOL_PROPERTY
VdW
SciTegic.value.DoubleValue
0.742

@<SCITEGIC>MOL_PROPERTY
VdW6
SciTegic.value.DoubleValue
-7.035

@<SCITEGIC>MOL_PROPERTY
VdW12
SciTegic.value.DoubleValue
7.777

@<SCITEGIC>MOL_PROPERTY
Bond
SciTegic.value.DoubleValue
0.190

@<SCITEGIC>MOL_PROPERTY
Angle
SciTegic.value.DoubleValue
0.753

@<SCITEGIC>MOL_PROPERTY
Pdih
SciTegic.value.DoubleValue
2.043

@<SCITEGIC>MOL_PROPERTY
Idih
SciTegic.value.DoubleValue
0.000

@<SCITEGIC>MOL_PROPERTY
Tether
SciTegic.value.DoubleValue
0.000

@<TRIPOS>MOLECULE
guest-s14_vm2.mol2 : vm2 ligand conformer 33
          26          25           1
SMALL
USER_CHARGES
 
@<TRIPOS>ATOM
       1    C1      19.861193   19.087833   19.080438 C.3        1 MOL1        -0.2400
       2    H1      20.748459   19.637521   18.740107 H          1 MOL1         0.0971
       3    H2      19.694076   18.254909   18.385203 H          1 MOL1         0.0971
       4    H3      18.996078   19.760514   19.014729 H          1 MOL1         0.0971
       5    C2      20.049520   18.566029   20.520779 C.3        1 MOL1        -0.1385
       6    H4      20.902965   17.874249   20.548580 H          1 MOL1         0.0960
       7    H5      19.161225   17.988340   20.808250 H          1 MOL1         0.0960
       8    C3      20.282354   19.723758   21.520315 C.3        1 MOL1        -0.1409
       9    H6      21.123482   20.335500   21.165848 H          1 MOL1         0.0960
      10    H7      19.404941   20.384997   21.532872 H          1 MOL1         0.0960
      11    C4      20.595813   19.249147   22.960749 C.3        1 MOL1        -0.1409
      12    H8      20.879034   20.128589   23.553899 H          1 MOL1         0.0960
      13    H9      21.475009   18.590331   22.946824 H          1 MOL1         0.0960
      14    C5      19.409271   18.524051   23.645537 C.3        1 MOL1        -0.1409
      15    H10     18.523169   19.173815   23.638718 H          1 MOL1         0.0960
      16    H11     19.142933   17.627601   23.070970 H          1 MOL1         0.0960
      17    C6      19.719881   18.091440   25.097979 C.3        1 MOL1        -0.1450
      18    H12     20.600305   17.435114   25.107434 H          1 MOL1         0.0960
      19    H13     18.879678   17.495531   25.478658 H          1 MOL1         0.0960
      20    C7      19.953918   19.286976   26.040633 C.3        1 MOL1         0.0172
      21    H14     20.818061   19.863571   25.701083 H          1 MOL1         0.0934
      22    H15     19.077588   19.940675   26.030182 H          1 MOL1         0.0934
      23    N1      20.209049   18.869765   27.474570 N.4        1 MOL1        -0.5956
      24    H16     20.362165   19.679489   28.085553 H          1 MOL1         0.3624
      25    H17     21.038391   18.272604   27.557006 H          1 MOL1         0.3624
      26    H18     19.419682   18.345657   27.866259 H          1 MOL1         0.3624
@<TRIPOS>BOND
    1     1     2    1
    2     1     3    1
    3     1     4    1
    4     1     5    1
    5     5     6    1
    6     5     7    1
    7     5     8    1
    8     8     9    1
    9     8    10    1
   10     8    11    1
   11    11    12    1
   12    11    13    1
   13    11    14    1
   14    14    15    1
   15    14    16    1
   16    14    17    1
   17    17    18    1
   18    17    19    1
   19    17    20    1
   20    20    21    1
   21    20    22    1
   22    20    23    1
   23    23    24    1
   24    23    25    1
   25    23    26    1
@<TRIPOS>SUBSTRUCTURE
       1 MOL1            1 RESIDUE      1      MOL     
@<SCITEGIC>MOL_PROPERTY
VM2 Rank
SciTegic.value.IntegerValue
33

@<SCITEGIC>MOL_PROPERTY
Conf_Id
SciTegic.value.IntegerValue
1280

@<SCITEGIC>MOL_PROPERTY
Probability
SciTegic.value.DoubleValue
1.07

@<SCITEGIC>MOL_PROPERTY
Sum Probability
SciTegic.value.DoubleValue
69.34

@<SCITEGIC>MOL_PROPERTY
Delta G
SciTegic.value.DoubleValue
1.143

@<SCITEGIC>MOL_PROPERTY
G
SciTegic.value.DoubleValue
49.404

@<SCITEGIC>MOL_PROPERTY
E
SciTegic.value.DoubleValue
16.883

@<SCITEGIC>MOL_PROPERTY
-TS
SciTegic.value.DoubleValue
32.521

@<SCITEGIC>MOL_PROPERTY
U+W
SciTegic.value.DoubleValue
-4.579

@<SCITEGIC>MOL_PROPERTY
U
SciTegic.value.DoubleValue
48.768

@<SCITEGIC>MOL_PROPERTY
W
SciTegic.value.DoubleValue
-53.346

@<SCITEGIC>MOL_PROPERTY
W(PB)
SciTegic.value.DoubleValue
-55.672

@<SCITEGIC>MOL_PROPERTY
W(SA)
SciTegic.value.DoubleValue
2.325

@<SCITEGIC>MOL_PROPERTY
Valence
SciTegic.value.DoubleValue
3.051

@<SCITEGIC>MOL_PROPERTY
Coulomb
SciTegic.value.DoubleValue
44.907

@<SCITEGIC>MOL_PROPERTY
VdW
SciTegic.value.DoubleValue
0.810

@<SCITEGIC>MOL_PROPERTY
VdW6
SciTegic.value.DoubleValue
-6.973

@<SCITEGIC>MOL_PROPERTY
VdW12
SciTegic.value.DoubleValue
7.783

@<SCITEGIC>MOL_PROPERTY
Bond
SciTegic.value.DoubleValue
0.197

@<SCITEGIC>MOL_PROPERTY
Angle
SciTegic.value.DoubleValue
0.815

@<SCITEGIC>MOL_PROPERTY
Pdih
SciTegic.value.DoubleValue
2.039

@<SCITEGIC>MOL_PROPERTY
Idih
SciTegic.value.DoubleValue
0.000

@<SCITEGIC>MOL_PROPERTY
Tether
SciTegic.value.DoubleValue
0.000

@<TRIPOS>MOLECULE
guest-s14_vm2.mol2 : vm2 ligand conformer 34
          26          25           1
SMALL
USER_CHARGES
 
@<TRIPOS>ATOM
       1    C1      20.308280   19.570785   19.245751 C.3        1 MOL1        -0.2400
       2    H1      19.291748   19.362980   18.886975 H          1 MOL1         0.0971
       3    H2      20.611579   20.549197   18.851093 H          1 MOL1         0.0971
       4    H3      20.981610   18.813773   18.822927 H          1 MOL1         0.0971
       5    C2      20.363897   19.564279   20.788185 C.3        1 MOL1        -0.1385
       6    H4      19.710717   20.359418   21.171407 H          1 MOL1         0.0960
       7    H5      21.384819   19.803996   21.116754 H          1 MOL1         0.0960
       8    C3      19.936140   18.195443   21.368258 C.3        1 MOL1        -0.1409
       9    H6      18.897677   17.979684   21.081390 H          1 MOL1         0.0960
      10    H7      20.551367   17.406899   20.913240 H          1 MOL1         0.0960
      11    C4      20.079857   18.103325   22.907221 C.3        1 MOL1        -0.1409
      12    H8      21.124729   18.296923   23.184623 H          1 MOL1         0.0960
      13    H9      19.864109   17.070833   23.214978 H          1 MOL1         0.0960
      14    C5      19.137153   19.065695   23.673208 C.3        1 MOL1        -0.1409
      15    H10     19.407987   20.108548   23.461646 H          1 MOL1         0.0960
      16    H11     18.108900   18.929769   23.310662 H          1 MOL1         0.0960
      17    C6      19.158059   18.839914   25.203213 C.3        1 MOL1        -0.1450
      18    H12     18.853182   17.809301   25.428763 H          1 MOL1         0.0960
      19    H13     18.413365   19.497524   25.671099 H          1 MOL1         0.0960
      20    C7      20.538973   19.119347   25.825451 C.3        1 MOL1         0.0172
      21    H14     21.281794   18.441399   25.397247 H          1 MOL1         0.0934
      22    H15     20.841351   20.146373   25.603710 H          1 MOL1         0.0934
      23    N1      20.558641   18.940212   27.329712 N.4        1 MOL1        -0.5956
      24    H16     21.486264   19.130848   27.724117 H          1 MOL1         0.3624
      25    H17     20.308331   17.984548   27.604028 H          1 MOL1         0.3624
      26    H18     19.899968   19.570933   27.798269 H          1 MOL1         0.3624
@<TRIPOS>BOND
    1     1     2    1
    2     1     3    1
    3     1     4    1
    4     1     5    1
    5     5     6    1
    6     5     7    1
    7     5     8    1
    8     8     9    1
    9     8    10    1
   10     8    11    1
   11    11    12    1
   12    11    13    1
   13    11    14    1
   14    14    15    1
   15    14    16    1
   16    14    17    1
   17    17    18    1
   18    17    19    1
   19    17    20    1
   20    20    21    1
   21    20    22    1
   22    20    23    1
   23    23    24    1
   24    23    25    1
   25    23    26    1
@<TRIPOS>SUBSTRUCTURE
       1 MOL1            1 RESIDUE      1      MOL     
@<SCITEGIC>MOL_PROPERTY
VM2 Rank
SciTegic.value.IntegerValue
34

@<SCITEGIC>MOL_PROPERTY
Conf_Id
SciTegic.value.IntegerValue
1228

@<SCITEGIC>MOL_PROPERTY
Probability
SciTegic.value.DoubleValue
1.03

@<SCITEGIC>MOL_PROPERTY
Sum Probability
SciTegic.value.DoubleValue
70.36

@<SCITEGIC>MOL_PROPERTY
Delta G
SciTegic.value.DoubleValue
1.169

@<SCITEGIC>MOL_PROPERTY
G
SciTegic.value.DoubleValue
49.430

@<SCITEGIC>MOL_PROPERTY
E
SciTegic.value.DoubleValue
16.869

@<SCITEGIC>MOL_PROPERTY
-TS
SciTegic.value.DoubleValue
32.561

@<SCITEGIC>MOL_PROPERTY
U+W
SciTegic.value.DoubleValue
-4.593

@<SCITEGIC>MOL_PROPERTY
U
SciTegic.value.DoubleValue
48.732

@<SCITEGIC>MOL_PROPERTY
W
SciTegic.value.DoubleValue
-53.325

@<SCITEGIC>MOL_PROPERTY
W(PB)
SciTegic.value.DoubleValue
-55.660

@<SCITEGIC>MOL_PROPERTY
W(SA)
SciTegic.value.DoubleValue
2.334

@<SCITEGIC>MOL_PROPERTY
Valence
SciTegic.value.DoubleValue
2.986

@<SCITEGIC>MOL_PROPERTY
Coulomb
SciTegic.value.DoubleValue
45.003

@<SCITEGIC>MOL_PROPERTY
VdW
SciTegic.value.DoubleValue
0.742

@<SCITEGIC>MOL_PROPERTY
VdW6
SciTegic.value.DoubleValue
-7.035

@<SCITEGIC>MOL_PROPERTY
VdW12
SciTegic.value.DoubleValue
7.777

@<SCITEGIC>MOL_PROPERTY
Bond
SciTegic.value.DoubleValue
0.190

@<SCITEGIC>MOL_PROPERTY
Angle
SciTegic.value.DoubleValue
0.753

@<SCITEGIC>MOL_PROPERTY
Pdih
SciTegic.value.DoubleValue
2.043

@<SCITEGIC>MOL_PROPERTY
Idih
SciTegic.value.DoubleValue
0.000

@<SCITEGIC>MOL_PROPERTY
Tether
SciTegic.value.DoubleValue
0.000

@<TRIPOS>MOLECULE
guest-s14_vm2.mol2 : vm2 ligand conformer 35
          26          25           1
SMALL
USER_CHARGES
 
@<TRIPOS>ATOM
       1    C1      18.788189   18.680362   20.177503 C.3        1 MOL1        -0.2400
       2    H1      19.169526   17.862230   19.552851 H          1 MOL1         0.0971
       3    H2      18.356734   18.246112   21.087983 H          1 MOL1         0.0971
       4    H3      17.974729   19.171690   19.628207 H          1 MOL1         0.0971
       5    C2      19.906917   19.693668   20.509051 C.3        1 MOL1        -0.1385
       6    H4      19.507199   20.490629   21.150220 H          1 MOL1         0.0960
       7    H5      20.223742   20.187138   19.579650 H          1 MOL1         0.0960
       8    C3      21.149580   19.045450   21.171096 C.3        1 MOL1        -0.1409
       9    H6      21.603033   18.340987   20.460284 H          1 MOL1         0.0960
      10    H7      21.904640   19.824477   21.344725 H          1 MOL1         0.0960
      11    C4      20.878297   18.300722   22.503852 C.3        1 MOL1        -0.1409
      12    H8      21.826083   17.873203   22.859004 H          1 MOL1         0.0960
      13    H9      20.210355   17.447379   22.326611 H          1 MOL1         0.0960
      14    C5      20.288367   19.207334   23.610556 C.3        1 MOL1        -0.1409
      15    H10     20.936781   20.082987   23.752881 H          1 MOL1         0.0960
      16    H11     19.304927   19.584652   23.300246 H          1 MOL1         0.0960
      17    C6      20.138768   18.453711   24.950420 C.3        1 MOL1        -0.1450
      18    H12     21.118701   18.080766   25.277067 H          1 MOL1         0.0960
      19    H13     19.490311   17.578318   24.811560 H          1 MOL1         0.0960
      20    C7      19.546819   19.360857   26.043421 C.3        1 MOL1         0.0172
      21    H14     20.197823   20.225895   26.196311 H          1 MOL1         0.0934
      22    H15     18.563388   19.721453   25.729891 H          1 MOL1         0.0934
      23    N1      19.384062   18.656896   27.375100 N.4        1 MOL1        -0.5956
      24    H16     20.279953   18.316451   27.739403 H          1 MOL1         0.3624
      25    H17     18.759178   17.847021   27.305468 H          1 MOL1         0.3624
      26    H18     18.988522   19.278632   28.088842 H          1 MOL1         0.3624
@<TRIPOS>BOND
    1     1     2    1
    2     1     3    1
    3     1     4    1
    4     1     5    1
    5     5     6    1
    6     5     7    1
    7     5     8    1
    8     8     9    1
    9     8    10    1
   10     8    11    1
   11    11    12    1
   12    11    13    1
   13    11    14    1
   14    14    15    1
   15    14    16    1
   16    14    17    1
   17    17    18    1
   18    17    19    1
   19    17    20    1
   20    20    21    1
   21    20    22    1
   22    20    23    1
   23    23    24    1
   24    23    25    1
   25    23    26    1
@<TRIPOS>SUBSTRUCTURE
       1 MOL1            1 RESIDUE      1      MOL     
@<SCITEGIC>MOL_PROPERTY
VM2 Rank
SciTegic.value.IntegerValue
35

@<SCITEGIC>MOL_PROPERTY
Conf_Id
SciTegic.value.IntegerValue
76

@<SCITEGIC>MOL_PROPERTY
Probability
SciTegic.value.DoubleValue
0.98

@<SCITEGIC>MOL_PROPERTY
Sum Probability
SciTegic.value.DoubleValue
71.34

@<SCITEGIC>MOL_PROPERTY
Delta G
SciTegic.value.DoubleValue
1.197

@<SCITEGIC>MOL_PROPERTY
G
SciTegic.value.DoubleValue
49.459

@<SCITEGIC>MOL_PROPERTY
E
SciTegic.value.DoubleValue
16.677

@<SCITEGIC>MOL_PROPERTY
-TS
SciTegic.value.DoubleValue
32.782

@<SCITEGIC>MOL_PROPERTY
U+W
SciTegic.value.DoubleValue
-4.785

@<SCITEGIC>MOL_PROPERTY
U
SciTegic.value.DoubleValue
48.494

@<SCITEGIC>MOL_PROPERTY
W
SciTegic.value.DoubleValue
-53.279

@<SCITEGIC>MOL_PROPERTY
W(PB)
SciTegic.value.DoubleValue
-55.569

@<SCITEGIC>MOL_PROPERTY
W(SA)
SciTegic.value.DoubleValue
2.290

@<SCITEGIC>MOL_PROPERTY
Valence
SciTegic.value.DoubleValue
3.118

@<SCITEGIC>MOL_PROPERTY
Coulomb
SciTegic.value.DoubleValue
44.692

@<SCITEGIC>MOL_PROPERTY
VdW
SciTegic.value.DoubleValue
0.684

@<SCITEGIC>MOL_PROPERTY
VdW6
SciTegic.value.DoubleValue
-7.346

@<SCITEGIC>MOL_PROPERTY
VdW12
SciTegic.value.DoubleValue
8.030

@<SCITEGIC>MOL_PROPERTY
Bond
SciTegic.value.DoubleValue
0.208

@<SCITEGIC>MOL_PROPERTY
Angle
SciTegic.value.DoubleValue
1.039

@<SCITEGIC>MOL_PROPERTY
Pdih
SciTegic.value.DoubleValue
1.870

@<SCITEGIC>MOL_PROPERTY
Idih
SciTegic.value.DoubleValue
0.000

@<SCITEGIC>MOL_PROPERTY
Tether
SciTegic.value.DoubleValue
0.000

@<TRIPOS>MOLECULE
guest-s14_vm2.mol2 : vm2 ligand conformer 36
          26          25           1
SMALL
USER_CHARGES
 
@<TRIPOS>ATOM
       1    C1      20.858979   20.046993   20.247027 C.3        1 MOL1        -0.2400
       2    H1      21.384689   20.244258   21.189585 H          1 MOL1         0.0971
       3    H2      21.490192   19.393858   19.630639 H          1 MOL1         0.0971
       4    H3      20.752185   21.004756   19.721545 H          1 MOL1         0.0971
       5    C2      19.473872   19.407901   20.494630 C.3        1 MOL1        -0.1385
       6    H4      18.939644   19.339742   19.536700 H          1 MOL1         0.0960
       7    H5      18.868502   20.069137   21.128911 H          1 MOL1         0.0960
       8    C3      19.551220   17.990638   21.117601 C.3        1 MOL1        -0.1409
       9    H6      18.531318   17.598332   21.231798 H          1 MOL1         0.0960
      10    H7      20.053718   17.318571   20.408402 H          1 MOL1         0.0960
      11    C4      20.279692   17.905607   22.483819 C.3        1 MOL1        -0.1409
      12    H8      21.333894   18.188639   22.364209 H          1 MOL1         0.0960
      13    H9      20.284142   16.855618   22.807402 H          1 MOL1         0.0960
      14    C5      19.626626   18.770564   23.588408 C.3        1 MOL1        -0.1409
      15    H10     19.679991   19.832144   23.312705 H          1 MOL1         0.0960
      16    H11     18.561266   18.515168   23.673521 H          1 MOL1         0.0960
      17    C6      20.315414   18.570282   24.956260 C.3        1 MOL1        -0.1450
      18    H12     21.380386   18.825734   24.874591 H          1 MOL1         0.0960
      19    H13     20.258667   17.513147   25.248317 H          1 MOL1         0.0960
      20    C7      19.663271   19.437724   26.047235 C.3        1 MOL1         0.0172
      21    H14     19.732176   20.492813   25.768836 H          1 MOL1         0.0934
      22    H15     18.606149   19.175466   26.143073 H          1 MOL1         0.0934
      23    N1      20.311925   19.269290   27.406021 N.4        1 MOL1        -0.5956
      24    H16     21.304251   19.526719   27.390405 H          1 MOL1         0.3624
      25    H17     20.256478   18.301003   27.738564 H          1 MOL1         0.3624
      26    H18     19.862613   19.855554   28.117955 H          1 MOL1         0.3624
@<TRIPOS>BOND
    1     1     2    1
    2     1     3    1
    3     1     4    1
    4     1     5    1
    5     5     6    1
    6     5     7    1
    7     5     8    1
    8     8     9    1
    9     8    10    1
   10     8    11    1
   11    11    12    1
   12    11    13    1
   13    11    14    1
   14    14    15    1
   15    14    16    1
   16    14    17    1
   17    17    18    1
   18    17    19    1
   19    17    20    1
   20    20    21    1
   21    20    22    1
   22    20    23    1
   23    23    24    1
   24    23    25    1
   25    23    26    1
@<TRIPOS>SUBSTRUCTURE
       1 MOL1            1 RESIDUE      1      MOL     
@<SCITEGIC>MOL_PROPERTY
VM2 Rank
SciTegic.value.IntegerValue
36

@<SCITEGIC>MOL_PROPERTY
Conf_Id
SciTegic.value.IntegerValue
77

@<SCITEGIC>MOL_PROPERTY
Probability
SciTegic.value.DoubleValue
0.92

@<SCITEGIC>MOL_PROPERTY
Sum Probability
SciTegic.value.DoubleValue
72.26

@<SCITEGIC>MOL_PROPERTY
Delta G
SciTegic.value.DoubleValue
1.232

@<SCITEGIC>MOL_PROPERTY
G
SciTegic.value.DoubleValue
49.493

@<SCITEGIC>MOL_PROPERTY
E
SciTegic.value.DoubleValue
16.711

@<SCITEGIC>MOL_PROPERTY
-TS
SciTegic.value.DoubleValue
32.782

@<SCITEGIC>MOL_PROPERTY
U+W
SciTegic.value.DoubleValue
-4.751

@<SCITEGIC>MOL_PROPERTY
U
SciTegic.value.DoubleValue
48.494

@<SCITEGIC>MOL_PROPERTY
W
SciTegic.value.DoubleValue
-53.245

@<SCITEGIC>MOL_PROPERTY
W(PB)
SciTegic.value.DoubleValue
-55.524

@<SCITEGIC>MOL_PROPERTY
W(SA)
SciTegic.value.DoubleValue
2.279

@<SCITEGIC>MOL_PROPERTY
Valence
SciTegic.value.DoubleValue
3.117

@<SCITEGIC>MOL_PROPERTY
Coulomb
SciTegic.value.DoubleValue
44.693

@<SCITEGIC>MOL_PROPERTY
VdW
SciTegic.value.DoubleValue
0.684

@<SCITEGIC>MOL_PROPERTY
VdW6
SciTegic.value.DoubleValue
-7.347

@<SCITEGIC>MOL_PROPERTY
VdW12
SciTegic.value.DoubleValue
8.031

@<SCITEGIC>MOL_PROPERTY
Bond
SciTegic.value.DoubleValue
0.208

@<SCITEGIC>MOL_PROPERTY
Angle
SciTegic.value.DoubleValue
1.039

@<SCITEGIC>MOL_PROPERTY
Pdih
SciTegic.value.DoubleValue
1.870

@<SCITEGIC>MOL_PROPERTY
Idih
SciTegic.value.DoubleValue
0.000

@<SCITEGIC>MOL_PROPERTY
Tether
SciTegic.value.DoubleValue
0.000

@<TRIPOS>MOLECULE
guest-s14_vm2.mol2 : vm2 ligand conformer 37
          26          25           1
SMALL
USER_CHARGES
 
@<TRIPOS>ATOM
       1    C1      20.114851   19.255436   19.088932 C.3        1 MOL1        -0.2400
       2    H1      19.839613   20.317219   19.043044 H          1 MOL1         0.0971
       3    H2      20.977854   19.102082   18.428060 H          1 MOL1         0.0971
       4    H3      19.277454   18.667549   18.690962 H          1 MOL1         0.0971
       5    C2      20.453274   18.832463   20.534234 C.3        1 MOL1        -0.1385
       6    H4      21.319220   19.411920   20.880361 H          1 MOL1         0.0960
       7    H5      20.752444   17.775054   20.543401 H          1 MOL1         0.0960
       8    C3      19.251938   19.044041   21.485890 C.3        1 MOL1        -0.1409
       9    H6      18.988395   20.110199   21.519098 H          1 MOL1         0.0960
      10    H7      18.376330   18.523435   21.074001 H          1 MOL1         0.0960
      11    C4      19.497822   18.524684   22.924004 C.3        1 MOL1        -0.1409
      12    H8      19.758422   17.457865   22.889300 H          1 MOL1         0.0960
      13    H9      18.551252   18.592928   23.476096 H          1 MOL1         0.0960
      14    C5      20.597856   19.307646   23.685234 C.3        1 MOL1        -0.1409
      15    H10     21.552591   19.216451   23.151520 H          1 MOL1         0.0960
      16    H11     20.349350   20.377904   23.699666 H          1 MOL1         0.0960
      17    C6      20.805547   18.807278   25.134273 C.3        1 MOL1        -0.1450
      18    H12     21.665206   19.332255   25.571709 H          1 MOL1         0.0960
      19    H13     21.062005   17.739522   25.122973 H          1 MOL1         0.0960
      20    C7      19.571730   19.035039   26.027863 C.3        1 MOL1         0.0172
      21    H14     19.316093   20.098023   26.037987 H          1 MOL1         0.0934
      22    H15     18.718498   18.479145   25.631033 H          1 MOL1         0.0934
      23    N1      19.787982   18.592413   27.460570 N.4        1 MOL1        -0.5956
      24    H16     18.955778   18.752591   28.038649 H          1 MOL1         0.3624
      25    H17     20.561285   19.098665   27.904326 H          1 MOL1         0.3624
      26    H18     20.006693   17.592664   27.522787 H          1 MOL1         0.3624
@<TRIPOS>BOND
    1     1     2    1
    2     1     3    1
    3     1     4    1
    4     1     5    1
    5     5     6    1
    6     5     7    1
    7     5     8    1
    8     8     9    1
    9     8    10    1
   10     8    11    1
   11    11    12    1
   12    11    13    1
   13    11    14    1
   14    14    15    1
   15    14    16    1
   16    14    17    1
   17    17    18    1
   18    17    19    1
   19    17    20    1
   20    20    21    1
   21    20    22    1
   22    20    23    1
   23    23    24    1
   24    23    25    1
   25    23    26    1
@<TRIPOS>SUBSTRUCTURE
       1 MOL1            1 RESIDUE      1      MOL     
@<SCITEGIC>MOL_PROPERTY
VM2 Rank
SciTegic.value.IntegerValue
37

@<SCITEGIC>MOL_PROPERTY
Conf_Id
SciTegic.value.IntegerValue
1343

@<SCITEGIC>MOL_PROPERTY
Probability
SciTegic.value.DoubleValue
0.92

@<SCITEGIC>MOL_PROPERTY
Sum Probability
SciTegic.value.DoubleValue
73.18

@<SCITEGIC>MOL_PROPERTY
Delta G
SciTegic.value.DoubleValue
1.236

@<SCITEGIC>MOL_PROPERTY
G
SciTegic.value.DoubleValue
49.497

@<SCITEGIC>MOL_PROPERTY
E
SciTegic.value.DoubleValue
16.976

@<SCITEGIC>MOL_PROPERTY
-TS
SciTegic.value.DoubleValue
32.521

@<SCITEGIC>MOL_PROPERTY
U+W
SciTegic.value.DoubleValue
-4.486

@<SCITEGIC>MOL_PROPERTY
U
SciTegic.value.DoubleValue
48.768

@<SCITEGIC>MOL_PROPERTY
W
SciTegic.value.DoubleValue
-53.253

@<SCITEGIC>MOL_PROPERTY
W(PB)
SciTegic.value.DoubleValue
-55.598

@<SCITEGIC>MOL_PROPERTY
W(SA)
SciTegic.value.DoubleValue
2.344

@<SCITEGIC>MOL_PROPERTY
Valence
SciTegic.value.DoubleValue
3.051

@<SCITEGIC>MOL_PROPERTY
Coulomb
SciTegic.value.DoubleValue
44.907

@<SCITEGIC>MOL_PROPERTY
VdW
SciTegic.value.DoubleValue
0.810

@<SCITEGIC>MOL_PROPERTY
VdW6
SciTegic.value.DoubleValue
-6.972

@<SCITEGIC>MOL_PROPERTY
VdW12
SciTegic.value.DoubleValue
7.782

@<SCITEGIC>MOL_PROPERTY
Bond
SciTegic.value.DoubleValue
0.197

@<SCITEGIC>MOL_PROPERTY
Angle
SciTegic.value.DoubleValue
0.815

@<SCITEGIC>MOL_PROPERTY
Pdih
SciTegic.value.DoubleValue
2.039

@<SCITEGIC>MOL_PROPERTY
Idih
SciTegic.value.DoubleValue
0.000

@<SCITEGIC>MOL_PROPERTY
Tether
SciTegic.value.DoubleValue
0.000

@<TRIPOS>MOLECULE
guest-s14_vm2.mol2 : vm2 ligand conformer 38
          26          25           1
SMALL
USER_CHARGES
 
@<TRIPOS>ATOM
       1    C1      19.732880   17.949107   19.744498 C.3        1 MOL1        -0.2400
       2    H1      20.042421   16.990856   20.181475 H          1 MOL1         0.0971
       3    H2      18.684111   18.126916   20.012897 H          1 MOL1         0.0971
       4    H3      19.782106   17.851594   18.652257 H          1 MOL1         0.0971
       5    C2      20.644738   19.100109   20.226531 C.3        1 MOL1        -0.1385
       6    H4      20.298912   20.050406   19.796315 H          1 MOL1         0.0960
       7    H5      21.658769   18.936787   19.835574 H          1 MOL1         0.0960
       8    C3      20.719192   19.219172   21.767860 C.3        1 MOL1        -0.1409
       9    H6      21.095168   18.274589   22.182336 H          1 MOL1         0.0960
      10    H7      21.460698   19.988623   22.023267 H          1 MOL1         0.0960
      11    C4      19.362510   19.585607   22.420994 C.3        1 MOL1        -0.1409
      12    H8      18.643127   18.768318   22.278873 H          1 MOL1         0.0960
      13    H9      18.942712   20.461230   21.906999 H          1 MOL1         0.0960
      14    C5      19.473106   19.908869   23.931299 C.3        1 MOL1        -0.1409
      15    H10     20.171001   20.744685   24.079277 H          1 MOL1         0.0960
      16    H11     18.493582   20.259039   24.285699 H          1 MOL1         0.0960
      17    C6      19.916083   18.701346   24.790398 C.3        1 MOL1        -0.1450
      18    H12     20.927430   18.385377   24.505123 H          1 MOL1         0.0960
      19    H13     19.246355   17.850836   24.606003 H          1 MOL1         0.0960
      20    C7      19.903223   19.046327   26.290004 C.3        1 MOL1         0.0172
      21    H14     20.581157   19.882601   26.481102 H          1 MOL1         0.0934
      22    H15     18.895256   19.344984   26.590441 H          1 MOL1         0.0934
      23    N1      20.329268   17.888463   27.169417 N.4        1 MOL1        -0.5956
      24    H16     21.282398   17.576756   26.955945 H          1 MOL1         0.3624
      25    H17     19.713592   17.076372   27.056848 H          1 MOL1         0.3624
      26    H18     20.313104   18.139610   28.163955 H          1 MOL1         0.3624
@<TRIPOS>BOND
    1     1     2    1
    2     1     3    1
    3     1     4    1
    4     1     5    1
    5     5     6    1
    6     5     7    1
    7     5     8    1
    8     8     9    1
    9     8    10    1
   10     8    11    1
   11    11    12    1
   12    11    13    1
   13    11    14    1
   14    14    15    1
   15    14    16    1
   16    14    17    1
   17    17    18    1
   18    17    19    1
   19    17    20    1
   20    20    21    1
   21    20    22    1
   22    20    23    1
   23    23    24    1
   24    23    25    1
   25    23    26    1
@<TRIPOS>SUBSTRUCTURE
       1 MOL1            1 RESIDUE      1      MOL     
@<SCITEGIC>MOL_PROPERTY
VM2 Rank
SciTegic.value.IntegerValue
38

@<SCITEGIC>MOL_PROPERTY
Conf_Id
SciTegic.value.IntegerValue
1594

@<SCITEGIC>MOL_PROPERTY
Probability
SciTegic.value.DoubleValue
0.89

@<SCITEGIC>MOL_PROPERTY
Sum Probability
SciTegic.value.DoubleValue
74.07

@<SCITEGIC>MOL_PROPERTY
Delta G
SciTegic.value.DoubleValue
1.252

@<SCITEGIC>MOL_PROPERTY
G
SciTegic.value.DoubleValue
49.513

@<SCITEGIC>MOL_PROPERTY
E
SciTegic.value.DoubleValue
16.924

@<SCITEGIC>MOL_PROPERTY
-TS
SciTegic.value.DoubleValue
32.589

@<SCITEGIC>MOL_PROPERTY
U+W
SciTegic.value.DoubleValue
-4.538

@<SCITEGIC>MOL_PROPERTY
U
SciTegic.value.DoubleValue
48.768

@<SCITEGIC>MOL_PROPERTY
W
SciTegic.value.DoubleValue
-53.306

@<SCITEGIC>MOL_PROPERTY
W(PB)
SciTegic.value.DoubleValue
-55.644

@<SCITEGIC>MOL_PROPERTY
W(SA)
SciTegic.value.DoubleValue
2.338

@<SCITEGIC>MOL_PROPERTY
Valence
SciTegic.value.DoubleValue
3.172

@<SCITEGIC>MOL_PROPERTY
Coulomb
SciTegic.value.DoubleValue
44.791

@<SCITEGIC>MOL_PROPERTY
VdW
SciTegic.value.DoubleValue
0.805

@<SCITEGIC>MOL_PROPERTY
VdW6
SciTegic.value.DoubleValue
-7.080

@<SCITEGIC>MOL_PROPERTY
VdW12
SciTegic.value.DoubleValue
7.886

@<SCITEGIC>MOL_PROPERTY
Bond
SciTegic.value.DoubleValue
0.203

@<SCITEGIC>MOL_PROPERTY
Angle
SciTegic.value.DoubleValue
0.850

@<SCITEGIC>MOL_PROPERTY
Pdih
SciTegic.value.DoubleValue
2.119

@<SCITEGIC>MOL_PROPERTY
Idih
SciTegic.value.DoubleValue
0.000

@<SCITEGIC>MOL_PROPERTY
Tether
SciTegic.value.DoubleValue
0.000

@<TRIPOS>MOLECULE
guest-s14_vm2.mol2 : vm2 ligand conformer 39
          26          25           1
SMALL
USER_CHARGES
 
@<TRIPOS>ATOM
       1    C1      20.668486   20.261712   19.990893 C.3        1 MOL1        -0.2400
       2    H1      20.177192   21.171986   19.623409 H          1 MOL1         0.0971
       3    H2      21.625251   20.554042   20.442942 H          1 MOL1         0.0971
       4    H3      20.880827   19.620828   19.125222 H          1 MOL1         0.0971
       5    C2      19.771424   19.533578   21.014186 C.3        1 MOL1        -0.1385
       6    H4      18.811537   19.280422   20.542829 H          1 MOL1         0.0960
       7    H5      19.548917   20.218276   21.843394 H          1 MOL1         0.0960
       8    C3      20.444861   18.248315   21.550157 C.3        1 MOL1        -0.1409
       9    H6      20.726579   17.612425   20.699561 H          1 MOL1         0.0960
      10    H7      21.384366   18.504812   22.057178 H          1 MOL1         0.0960
      11    C4      19.538347   17.420374   22.497550 C.3        1 MOL1        -0.1409
      12    H8      20.080897   16.514627   22.801632 H          1 MOL1         0.0960
      13    H9      18.662142   17.069994   21.934771 H          1 MOL1         0.0960
      14    C5      19.049216   18.163107   23.767962 C.3        1 MOL1        -0.1409
      15    H10     18.399762   19.002608   23.486285 H          1 MOL1         0.0960
      16    H11     18.417681   17.476013   24.348182 H          1 MOL1         0.0960
      17    C6      20.198477   18.670494   24.670010 C.3        1 MOL1        -0.1450
      18    H12     20.795509   19.419421   24.134368 H          1 MOL1         0.0960
      19    H13     20.869231   17.837150   24.917912 H          1 MOL1         0.0960
      20    C7      19.657619   19.295844   25.967762 C.3        1 MOL1         0.0172
      21    H14     19.001490   20.136299   25.725730 H          1 MOL1         0.0934
      22    H15     19.075642   18.552835   26.519751 H          1 MOL1         0.0934
      23    N1      20.752571   19.805576   26.882479 N.4        1 MOL1        -0.5956
      24    H16     21.321241   20.529723   26.431514 H          1 MOL1         0.3624
      25    H17     21.390323   19.055873   27.169582 H          1 MOL1         0.3624
      26    H18     20.370584   20.217438   27.740893 H          1 MOL1         0.3624
@<TRIPOS>BOND
    1     1     2    1
    2     1     3    1
    3     1     4    1
    4     1     5    1
    5     5     6    1
    6     5     7    1
    7     5     8    1
    8     8     9    1
    9     8    10    1
   10     8    11    1
   11    11    12    1
   12    11    13    1
   13    11    14    1
   14    14    15    1
   15    14    16    1
   16    14    17    1
   17    17    18    1
   18    17    19    1
   19    17    20    1
   20    20    21    1
   21    20    22    1
   22    20    23    1
   23    23    24    1
   24    23    25    1
   25    23    26    1
@<TRIPOS>SUBSTRUCTURE
       1 MOL1            1 RESIDUE      1      MOL     
@<SCITEGIC>MOL_PROPERTY
VM2 Rank
SciTegic.value.IntegerValue
39

@<SCITEGIC>MOL_PROPERTY
Conf_Id
SciTegic.value.IntegerValue
1549

@<SCITEGIC>MOL_PROPERTY
Probability
SciTegic.value.DoubleValue
0.88

@<SCITEGIC>MOL_PROPERTY
Sum Probability
SciTegic.value.DoubleValue
74.95

@<SCITEGIC>MOL_PROPERTY
Delta G
SciTegic.value.DoubleValue
1.261

@<SCITEGIC>MOL_PROPERTY
G
SciTegic.value.DoubleValue
49.522

@<SCITEGIC>MOL_PROPERTY
E
SciTegic.value.DoubleValue
16.726

@<SCITEGIC>MOL_PROPERTY
-TS
SciTegic.value.DoubleValue
32.795

@<SCITEGIC>MOL_PROPERTY
U+W
SciTegic.value.DoubleValue
-4.736

@<SCITEGIC>MOL_PROPERTY
U
SciTegic.value.DoubleValue
48.911

@<SCITEGIC>MOL_PROPERTY
W
SciTegic.value.DoubleValue
-53.646

@<SCITEGIC>MOL_PROPERTY
W(PB)
SciTegic.value.DoubleValue
-55.960

@<SCITEGIC>MOL_PROPERTY
W(SA)
SciTegic.value.DoubleValue
2.314

@<SCITEGIC>MOL_PROPERTY
Valence
SciTegic.value.DoubleValue
3.149

@<SCITEGIC>MOL_PROPERTY
Coulomb
SciTegic.value.DoubleValue
45.131

@<SCITEGIC>MOL_PROPERTY
VdW
SciTegic.value.DoubleValue
0.630

@<SCITEGIC>MOL_PROPERTY
VdW6
SciTegic.value.DoubleValue
-7.453

@<SCITEGIC>MOL_PROPERTY
VdW12
SciTegic.value.DoubleValue
8.084

@<SCITEGIC>MOL_PROPERTY
Bond
SciTegic.value.DoubleValue
0.212

@<SCITEGIC>MOL_PROPERTY
Angle
SciTegic.value.DoubleValue
1.075

@<SCITEGIC>MOL_PROPERTY
Pdih
SciTegic.value.DoubleValue
1.862

@<SCITEGIC>MOL_PROPERTY
Idih
SciTegic.value.DoubleValue
0.000

@<SCITEGIC>MOL_PROPERTY
Tether
SciTegic.value.DoubleValue
0.000

@<TRIPOS>MOLECULE
guest-s14_vm2.mol2 : vm2 ligand conformer 40
          26          25           1
SMALL
USER_CHARGES
 
@<TRIPOS>ATOM
       1    C1      21.180097   18.901857   19.792722 C.3        1 MOL1        -0.2400
       2    H1      21.417892   19.926596   20.104064 H          1 MOL1         0.0971
       3    H2      21.917265   18.225086   20.243913 H          1 MOL1         0.0971
       4    H3      21.300950   18.851557   18.702866 H          1 MOL1         0.0971
       5    C2      19.741776   18.505712   20.196391 C.3        1 MOL1        -0.1385
       6    H4      19.510079   17.522337   19.763873 H          1 MOL1         0.0960
       7    H5      19.025897   19.212415   19.753861 H          1 MOL1         0.0960
       8    C3      19.531496   18.437288   21.728224 C.3        1 MOL1        -0.1409
       9    H6      18.521059   18.053447   21.925203 H          1 MOL1         0.0960
      10    H7      20.230957   17.705638   22.153466 H          1 MOL1         0.0960
      11    C4      19.699684   19.807505   22.432257 C.3        1 MOL1        -0.1409
      12    H8      19.085490   20.555154   21.911754 H          1 MOL1         0.0960
      13    H9      20.740059   20.148596   22.348905 H          1 MOL1         0.0960
      14    C5      19.289041   19.787679   23.925149 C.3        1 MOL1        -0.1409
      15    H10     19.337286   20.814453   24.313857 H          1 MOL1         0.0960
      16    H11     18.239881   19.473390   24.014770 H          1 MOL1         0.0960
      17    C6      20.182701   18.876869   24.799326 C.3        1 MOL1        -0.1450
      18    H12     21.235932   19.160652   24.672537 H          1 MOL1         0.0960
      19    H13     20.087352   17.832315   24.477061 H          1 MOL1         0.0960
      20    C7      19.801223   18.979192   26.286605 C.3        1 MOL1         0.0172
      21    H14     19.910473   20.013320   26.624394 H          1 MOL1         0.0934
      22    H15     18.757495   18.682091   26.420134 H          1 MOL1         0.0934
      23    N1      20.654982   18.102899   27.180325 N.4        1 MOL1        -0.5956
      24    H16     20.575262   17.111267   26.932331 H          1 MOL1         0.3624
      25    H17     20.384485   18.186628   28.166358 H          1 MOL1         0.3624
      26    H18     21.648312   18.350011   27.121550 H          1 MOL1         0.3624
@<TRIPOS>BOND
    1     1     2    1
    2     1     3    1
    3     1     4    1
    4     1     5    1
    5     5     6    1
    6     5     7    1
    7     5     8    1
    8     8     9    1
    9     8    10    1
   10     8    11    1
   11    11    12    1
   12    11    13    1
   13    11    14    1
   14    14    15    1
   15    14    16    1
   16    14    17    1
   17    17    18    1
   18    17    19    1
   19    17    20    1
   20    20    21    1
   21    20    22    1
   22    20    23    1
   23    23    24    1
   24    23    25    1
   25    23    26    1
@<TRIPOS>SUBSTRUCTURE
       1 MOL1            1 RESIDUE      1      MOL     
@<SCITEGIC>MOL_PROPERTY
VM2 Rank
SciTegic.value.IntegerValue
40

@<SCITEGIC>MOL_PROPERTY
Conf_Id
SciTegic.value.IntegerValue
463

@<SCITEGIC>MOL_PROPERTY
Probability
SciTegic.value.DoubleValue
0.87

@<SCITEGIC>MOL_PROPERTY
Sum Probability
SciTegic.value.DoubleValue
75.82

@<SCITEGIC>MOL_PROPERTY
Delta G
SciTegic.value.DoubleValue
1.267

@<SCITEGIC>MOL_PROPERTY
G
SciTegic.value.DoubleValue
49.528

@<SCITEGIC>MOL_PROPERTY
E
SciTegic.value.DoubleValue
16.939

@<SCITEGIC>MOL_PROPERTY
-TS
SciTegic.value.DoubleValue
32.589

@<SCITEGIC>MOL_PROPERTY
U+W
SciTegic.value.DoubleValue
-4.523

@<SCITEGIC>MOL_PROPERTY
U
SciTegic.value.DoubleValue
48.768

@<SCITEGIC>MOL_PROPERTY
W
SciTegic.value.DoubleValue
-53.291

@<SCITEGIC>MOL_PROPERTY
W(PB)
SciTegic.value.DoubleValue
-55.604

@<SCITEGIC>MOL_PROPERTY
W(SA)
SciTegic.value.DoubleValue
2.313

@<SCITEGIC>MOL_PROPERTY
Valence
SciTegic.value.DoubleValue
3.172

@<SCITEGIC>MOL_PROPERTY
Coulomb
SciTegic.value.DoubleValue
44.791

@<SCITEGIC>MOL_PROPERTY
VdW
SciTegic.value.DoubleValue
0.805

@<SCITEGIC>MOL_PROPERTY
VdW6
SciTegic.value.DoubleValue
-7.080

@<SCITEGIC>MOL_PROPERTY
VdW12
SciTegic.value.DoubleValue
7.886

@<SCITEGIC>MOL_PROPERTY
Bond
SciTegic.value.DoubleValue
0.203

@<SCITEGIC>MOL_PROPERTY
Angle
SciTegic.value.DoubleValue
0.850

@<SCITEGIC>MOL_PROPERTY
Pdih
SciTegic.value.DoubleValue
2.120

@<SCITEGIC>MOL_PROPERTY
Idih
SciTegic.value.DoubleValue
0.000

@<SCITEGIC>MOL_PROPERTY
Tether
SciTegic.value.DoubleValue
0.000

@<TRIPOS>MOLECULE
guest-s14_vm2.mol2 : vm2 ligand conformer 41
          26          25           1
SMALL
USER_CHARGES
 
@<TRIPOS>ATOM
       1    C1      18.677518   18.946928   19.924202 C.3        1 MOL1        -0.2400
       2    H1      19.223607   18.526337   19.069744 H          1 MOL1         0.0971
       3    H2      18.013090   18.168818   20.322051 H          1 MOL1         0.0971
       4    H3      18.050593   19.767608   19.552097 H          1 MOL1         0.0971
       5    C2      19.650299   19.453567   21.010041 C.3        1 MOL1        -0.1385
       6    H4      19.069636   19.901851   21.827218 H          1 MOL1         0.0960
       7    H5      20.280845   20.250542   20.591844 H          1 MOL1         0.0960
       8    C3      20.542634   18.312898   21.553452 C.3        1 MOL1        -0.1409
       9    H6      19.915346   17.534881   22.008125 H          1 MOL1         0.0960
      10    H7      21.056236   17.830036   20.710664 H          1 MOL1         0.0960
      11    C4      21.614391   18.791326   22.566985 C.3        1 MOL1        -0.1409
      12    H8      22.305702   19.476035   22.056608 H          1 MOL1         0.0960
      13    H9      22.220106   17.927298   22.873199 H          1 MOL1         0.0960
      14    C5      21.064288   19.493819   23.835348 C.3        1 MOL1        -0.1409
      15    H10     21.916016   19.786214   24.465153 H          1 MOL1         0.0960
      16    H11     20.560257   20.429347   23.558522 H          1 MOL1         0.0960
      17    C6      20.105998   18.609474   24.666943 C.3        1 MOL1        -0.1450
      18    H12     20.597586   17.657811   24.908823 H          1 MOL1         0.0960
      19    H13     19.208871   18.371763   24.081362 H          1 MOL1         0.0960
      20    C7      19.682794   19.312464   25.968655 C.3        1 MOL1         0.0172
      21    H14     20.567830   19.538198   26.569659 H          1 MOL1         0.0934
      22    H15     19.178631   20.253285   25.731741 H          1 MOL1         0.0934
      23    N1      18.743077   18.478524   26.815373 N.4        1 MOL1        -0.5956
      24    H16     19.168941   17.588880   27.095346 H          1 MOL1         0.3624
      25    H17     17.875885   18.254500   26.316439 H          1 MOL1         0.3624
      26    H18     18.474282   18.965081   27.677597 H          1 MOL1         0.3624
@<TRIPOS>BOND
    1     1     2    1
    2     1     3    1
    3     1     4    1
    4     1     5    1
    5     5     6    1
    6     5     7    1
    7     5     8    1
    8     8     9    1
    9     8    10    1
   10     8    11    1
   11    11    12    1
   12    11    13    1
   13    11    14    1
   14    14    15    1
   15    14    16    1
   16    14    17    1
   17    17    18    1
   18    17    19    1
   19    17    20    1
   20    20    21    1
   21    20    22    1
   22    20    23    1
   23    23    24    1
   24    23    25    1
   25    23    26    1
@<TRIPOS>SUBSTRUCTURE
       1 MOL1            1 RESIDUE      1      MOL     
@<SCITEGIC>MOL_PROPERTY
VM2 Rank
SciTegic.value.IntegerValue
41

@<SCITEGIC>MOL_PROPERTY
Conf_Id
SciTegic.value.IntegerValue
152

@<SCITEGIC>MOL_PROPERTY
Probability
SciTegic.value.DoubleValue
0.84

@<SCITEGIC>MOL_PROPERTY
Sum Probability
SciTegic.value.DoubleValue
76.66

@<SCITEGIC>MOL_PROPERTY
Delta G
SciTegic.value.DoubleValue
1.289

@<SCITEGIC>MOL_PROPERTY
G
SciTegic.value.DoubleValue
49.550

@<SCITEGIC>MOL_PROPERTY
E
SciTegic.value.DoubleValue
16.754

@<SCITEGIC>MOL_PROPERTY
-TS
SciTegic.value.DoubleValue
32.795

@<SCITEGIC>MOL_PROPERTY
U+W
SciTegic.value.DoubleValue
-4.707

@<SCITEGIC>MOL_PROPERTY
U
SciTegic.value.DoubleValue
48.910

@<SCITEGIC>MOL_PROPERTY
W
SciTegic.value.DoubleValue
-53.618

@<SCITEGIC>MOL_PROPERTY
W(PB)
SciTegic.value.DoubleValue
-55.928

@<SCITEGIC>MOL_PROPERTY
W(SA)
SciTegic.value.DoubleValue
2.311

@<SCITEGIC>MOL_PROPERTY
Valence
SciTegic.value.DoubleValue
3.149

@<SCITEGIC>MOL_PROPERTY
Coulomb
SciTegic.value.DoubleValue
45.131

@<SCITEGIC>MOL_PROPERTY
VdW
SciTegic.value.DoubleValue
0.630

@<SCITEGIC>MOL_PROPERTY
VdW6
SciTegic.value.DoubleValue
-7.453

@<SCITEGIC>MOL_PROPERTY
VdW12
SciTegic.value.DoubleValue
8.083

@<SCITEGIC>MOL_PROPERTY
Bond
SciTegic.value.DoubleValue
0.212

@<SCITEGIC>MOL_PROPERTY
Angle
SciTegic.value.DoubleValue
1.075

@<SCITEGIC>MOL_PROPERTY
Pdih
SciTegic.value.DoubleValue
1.862

@<SCITEGIC>MOL_PROPERTY
Idih
SciTegic.value.DoubleValue
0.000

@<SCITEGIC>MOL_PROPERTY
Tether
SciTegic.value.DoubleValue
0.000

@<TRIPOS>MOLECULE
guest-s14_vm2.mol2 : vm2 ligand conformer 42
          26          25           1
SMALL
USER_CHARGES
 
@<TRIPOS>ATOM
       1    C1      19.845783   19.221717   19.327824 C.3        1 MOL1        -0.2400
       2    H1      18.798668   18.969623   19.535608 H          1 MOL1         0.0971
       3    H2      19.945480   20.314874   19.336845 H          1 MOL1         0.0971
       4    H3      20.072723   18.872669   18.312147 H          1 MOL1         0.0971
       5    C2      20.802908   18.567630   20.350214 C.3        1 MOL1        -0.1385
       6    H4      21.838098   18.742076   20.024993 H          1 MOL1         0.0960
       7    H5      20.659639   17.478036   20.347104 H          1 MOL1         0.0960
       8    C3      20.637645   19.113694   21.789300 C.3        1 MOL1        -0.1409
       9    H6      21.443283   18.693725   22.404855 H          1 MOL1         0.0960
      10    H7      20.783988   20.202553   21.787091 H          1 MOL1         0.0960
      11    C4      19.266286   18.770968   22.425333 C.3        1 MOL1        -0.1409
      12    H8      19.121116   17.681958   22.430079 H          1 MOL1         0.0960
      13    H9      18.462343   19.187020   21.804675 H          1 MOL1         0.0960
      14    C5      19.094493   19.323695   23.861898 C.3        1 MOL1        -0.1409
      15    H10     19.240569   20.412824   23.857639 H          1 MOL1         0.0960
      16    H11     18.055509   19.153832   24.177157 H          1 MOL1         0.0960
      17    C6      20.042949   18.673363   24.896547 C.3        1 MOL1        -0.1450
      18    H12     21.087130   18.904127   24.651586 H          1 MOL1         0.0960
      19    H13     19.935036   17.581099   24.861964 H          1 MOL1         0.0960
      20    C7      19.742506   19.171345   26.321273 C.3        1 MOL1         0.0172
      21    H14     19.864205   20.257047   26.364979 H          1 MOL1         0.0934
      22    H15     18.709325   18.930051   26.585416 H          1 MOL1         0.0934
      23    N1      20.648431   18.556588   27.368611 N.4        1 MOL1        -0.5956
      24    H16     20.431011   18.901474   28.310007 H          1 MOL1         0.3624
      25    H17     21.635707   18.770427   27.193246 H          1 MOL1         0.3624
      26    H18     20.561135   17.535424   27.397554 H          1 MOL1         0.3624
@<TRIPOS>BOND
    1     1     2    1
    2     1     3    1
    3     1     4    1
    4     1     5    1
    5     5     6    1
    6     5     7    1
    7     5     8    1
    8     8     9    1
    9     8    10    1
   10     8    11    1
   11    11    12    1
   12    11    13    1
   13    11    14    1
   14    14    15    1
   15    14    16    1
   16    14    17    1
   17    17    18    1
   18    17    19    1
   19    17    20    1
   20    20    21    1
   21    20    22    1
   22    20    23    1
   23    23    24    1
   24    23    25    1
   25    23    26    1
@<TRIPOS>SUBSTRUCTURE
       1 MOL1            1 RESIDUE      1      MOL     
@<SCITEGIC>MOL_PROPERTY
VM2 Rank
SciTegic.value.IntegerValue
42

@<SCITEGIC>MOL_PROPERTY
Conf_Id
SciTegic.value.IntegerValue
1570

@<SCITEGIC>MOL_PROPERTY
Probability
SciTegic.value.DoubleValue
0.76

@<SCITEGIC>MOL_PROPERTY
Sum Probability
SciTegic.value.DoubleValue
77.41

@<SCITEGIC>MOL_PROPERTY
Delta G
SciTegic.value.DoubleValue
1.349

@<SCITEGIC>MOL_PROPERTY
G
SciTegic.value.DoubleValue
49.610

@<SCITEGIC>MOL_PROPERTY
E
SciTegic.value.DoubleValue
17.103

@<SCITEGIC>MOL_PROPERTY
-TS
SciTegic.value.DoubleValue
32.507

@<SCITEGIC>MOL_PROPERTY
U+W
SciTegic.value.DoubleValue
-4.359

@<SCITEGIC>MOL_PROPERTY
U
SciTegic.value.DoubleValue
48.902

@<SCITEGIC>MOL_PROPERTY
W
SciTegic.value.DoubleValue
-53.260

@<SCITEGIC>MOL_PROPERTY
W(PB)
SciTegic.value.DoubleValue
-55.569

@<SCITEGIC>MOL_PROPERTY
W(SA)
SciTegic.value.DoubleValue
2.309

@<SCITEGIC>MOL_PROPERTY
Valence
SciTegic.value.DoubleValue
3.277

@<SCITEGIC>MOL_PROPERTY
Coulomb
SciTegic.value.DoubleValue
44.745

@<SCITEGIC>MOL_PROPERTY
VdW
SciTegic.value.DoubleValue
0.880

@<SCITEGIC>MOL_PROPERTY
VdW6
SciTegic.value.DoubleValue
-6.990

@<SCITEGIC>MOL_PROPERTY
VdW12
SciTegic.value.DoubleValue
7.871

@<SCITEGIC>MOL_PROPERTY
Bond
SciTegic.value.DoubleValue
0.211

@<SCITEGIC>MOL_PROPERTY
Angle
SciTegic.value.DoubleValue
0.950

@<SCITEGIC>MOL_PROPERTY
Pdih
SciTegic.value.DoubleValue
2.115

@<SCITEGIC>MOL_PROPERTY
Idih
SciTegic.value.DoubleValue
0.000

@<SCITEGIC>MOL_PROPERTY
Tether
SciTegic.value.DoubleValue
0.000

@<TRIPOS>MOLECULE
guest-s14_vm2.mol2 : vm2 ligand conformer 43
          26          25           1
SMALL
USER_CHARGES
 
@<TRIPOS>ATOM
       1    C1      19.987462   19.314581   19.332483 C.3        1 MOL1        -0.2400
       2    H1      18.944126   19.654565   19.302927 H          1 MOL1         0.0971
       3    H2      20.621142   20.170059   19.596656 H          1 MOL1         0.0971
       4    H3      20.266324   18.999485   18.318635 H          1 MOL1         0.0971
       5    C2      20.163484   18.146062   20.328867 C.3        1 MOL1        -0.1385
       6    H4      21.220419   17.847333   20.366246 H          1 MOL1         0.0960
       7    H5      19.611325   17.274450   19.950408 H          1 MOL1         0.0960
       8    C3      19.659611   18.469351   21.756479 C.3        1 MOL1        -0.1409
       9    H6      18.602320   18.764888   21.713704 H          1 MOL1         0.0960
      10    H7      19.699615   17.544932   22.346549 H          1 MOL1         0.0960
      11    C4      20.483741   19.573882   22.466017 C.3        1 MOL1        -0.1409
      12    H8      20.446570   20.495443   21.871051 H          1 MOL1         0.0960
      13    H9      21.540654   19.277310   22.510951 H          1 MOL1         0.0960
      14    C5      19.976757   19.905561   23.891392 C.3        1 MOL1        -0.1409
      15    H10     20.526187   20.783186   24.259675 H          1 MOL1         0.0960
      16    H11     18.919250   20.200972   23.846980 H          1 MOL1         0.0960
      17    C6      20.153516   18.746279   24.900263 C.3        1 MOL1        -0.1450
      18    H12     21.200726   18.415795   24.904177 H          1 MOL1         0.0960
      19    H13     19.542860   17.885720   24.600085 H          1 MOL1         0.0960
      20    C7      19.747985   19.174889   26.321508 C.3        1 MOL1         0.0172
      21    H14     20.363005   20.020708   26.640564 H          1 MOL1         0.0934
      22    H15     18.700920   19.489694   26.326314 H          1 MOL1         0.0934
      23    N1      19.908444   18.068395   27.343990 N.4        1 MOL1        -0.5956
      24    H16     19.633356   18.375218   28.283474 H          1 MOL1         0.3624
      25    H17     20.879359   17.745225   27.408167 H          1 MOL1         0.3624
      26    H18     19.332568   17.251183   27.116551 H          1 MOL1         0.3624
@<TRIPOS>BOND
    1     1     2    1
    2     1     3    1
    3     1     4    1
    4     1     5    1
    5     5     6    1
    6     5     7    1
    7     5     8    1
    8     8     9    1
    9     8    10    1
   10     8    11    1
   11    11    12    1
   12    11    13    1
   13    11    14    1
   14    14    15    1
   15    14    16    1
   16    14    17    1
   17    17    18    1
   18    17    19    1
   19    17    20    1
   20    20    21    1
   21    20    22    1
   22    20    23    1
   23    23    24    1
   24    23    25    1
   25    23    26    1
@<TRIPOS>SUBSTRUCTURE
       1 MOL1            1 RESIDUE      1      MOL     
@<SCITEGIC>MOL_PROPERTY
VM2 Rank
SciTegic.value.IntegerValue
43

@<SCITEGIC>MOL_PROPERTY
Conf_Id
SciTegic.value.IntegerValue
1114

@<SCITEGIC>MOL_PROPERTY
Probability
SciTegic.value.DoubleValue
0.74

@<SCITEGIC>MOL_PROPERTY
Sum Probability
SciTegic.value.DoubleValue
78.15

@<SCITEGIC>MOL_PROPERTY
Delta G
SciTegic.value.DoubleValue
1.364

@<SCITEGIC>MOL_PROPERTY
G
SciTegic.value.DoubleValue
49.625

@<SCITEGIC>MOL_PROPERTY
E
SciTegic.value.DoubleValue
17.118

@<SCITEGIC>MOL_PROPERTY
-TS
SciTegic.value.DoubleValue
32.507

@<SCITEGIC>MOL_PROPERTY
U+W
SciTegic.value.DoubleValue
-4.343

@<SCITEGIC>MOL_PROPERTY
U
SciTegic.value.DoubleValue
48.901

@<SCITEGIC>MOL_PROPERTY
W
SciTegic.value.DoubleValue
-53.245

@<SCITEGIC>MOL_PROPERTY
W(PB)
SciTegic.value.DoubleValue
-55.589

@<SCITEGIC>MOL_PROPERTY
W(SA)
SciTegic.value.DoubleValue
2.344

@<SCITEGIC>MOL_PROPERTY
Valence
SciTegic.value.DoubleValue
3.277

@<SCITEGIC>MOL_PROPERTY
Coulomb
SciTegic.value.DoubleValue
44.745

@<SCITEGIC>MOL_PROPERTY
VdW
SciTegic.value.DoubleValue
0.880

@<SCITEGIC>MOL_PROPERTY
VdW6
SciTegic.value.DoubleValue
-6.990

@<SCITEGIC>MOL_PROPERTY
VdW12
SciTegic.value.DoubleValue
7.870

@<SCITEGIC>MOL_PROPERTY
Bond
SciTegic.value.DoubleValue
0.211

@<SCITEGIC>MOL_PROPERTY
Angle
SciTegic.value.DoubleValue
0.950

@<SCITEGIC>MOL_PROPERTY
Pdih
SciTegic.value.DoubleValue
2.115

@<SCITEGIC>MOL_PROPERTY
Idih
SciTegic.value.DoubleValue
0.000

@<SCITEGIC>MOL_PROPERTY
Tether
SciTegic.value.DoubleValue
0.000

@<TRIPOS>MOLECULE
guest-s14_vm2.mol2 : vm2 ligand conformer 44
          26          25           1
SMALL
USER_CHARGES
 
@<TRIPOS>ATOM
       1    C1      20.705983   19.737502   19.874401 C.3        1 MOL1        -0.2400
       2    H1      19.743691   20.144564   19.537776 H          1 MOL1         0.0971
       3    H2      21.134147   20.429555   20.610060 H          1 MOL1         0.0971
       4    H3      21.382055   19.715641   19.009893 H          1 MOL1         0.0971
       5    C2      20.534054   18.318548   20.462404 C.3        1 MOL1        -0.1385
       6    H4      21.504603   17.946212   20.818975 H          1 MOL1         0.0960
       7    H5      20.220250   17.637897   19.658647 H          1 MOL1         0.0960
       8    C3      19.493984   18.248533   21.606545 C.3        1 MOL1        -0.1409
       9    H6      18.520140   18.599894   21.238550 H          1 MOL1         0.0960
      10    H7      19.356243   17.195506   21.888397 H          1 MOL1         0.0960
      11    C4      19.901591   19.058303   22.860674 C.3        1 MOL1        -0.1409
      12    H8      19.969221   20.125072   22.610176 H          1 MOL1         0.0960
      13    H9      20.901777   18.741456   23.184501 H          1 MOL1         0.0960
      14    C5      18.887829   18.873161   24.015208 C.3        1 MOL1        -0.1409
      15    H10     17.884515   19.146007   23.659860 H          1 MOL1         0.0960
      16    H11     18.833634   17.812924   24.296306 H          1 MOL1         0.0960
      17    C6      19.219433   19.732209   25.261234 C.3        1 MOL1        -0.1450
      18    H12     18.440666   19.585035   26.021275 H          1 MOL1         0.0960
      19    H13     19.183110   20.795161   24.987966 H          1 MOL1         0.0960
      20    C7      20.596899   19.428857   25.884941 C.3        1 MOL1         0.0172
      21    H14     21.384846   19.616340   25.151016 H          1 MOL1         0.0934
      22    H15     20.763094   20.092493   26.737859 H          1 MOL1         0.0934
      23    N1      20.741226   18.001886   26.375591 N.4        1 MOL1        -0.5956
      24    H16     21.663672   17.833037   26.791219 H          1 MOL1         0.3624
      25    H17     20.625886   17.327301   25.612942 H          1 MOL1         0.3624
      26    H18     20.043592   17.773435   27.091149 H          1 MOL1         0.3624
@<TRIPOS>BOND
    1     1     2    1
    2     1     3    1
    3     1     4    1
    4     1     5    1
    5     5     6    1
    6     5     7    1
    7     5     8    1
    8     8     9    1
    9     8    10    1
   10     8    11    1
   11    11    12    1
   12    11    13    1
   13    11    14    1
   14    14    15    1
   15    14    16    1
   16    14    17    1
   17    17    18    1
   18    17    19    1
   19    17    20    1
   20    20    21    1
   21    20    22    1
   22    20    23    1
   23    23    24    1
   24    23    25    1
   25    23    26    1
@<TRIPOS>SUBSTRUCTURE
       1 MOL1            1 RESIDUE      1      MOL     
@<SCITEGIC>MOL_PROPERTY
VM2 Rank
SciTegic.value.IntegerValue
44

@<SCITEGIC>MOL_PROPERTY
Conf_Id
SciTegic.value.IntegerValue
1049

@<SCITEGIC>MOL_PROPERTY
Probability
SciTegic.value.DoubleValue
0.61

@<SCITEGIC>MOL_PROPERTY
Sum Probability
SciTegic.value.DoubleValue
78.77

@<SCITEGIC>MOL_PROPERTY
Delta G
SciTegic.value.DoubleValue
1.476

@<SCITEGIC>MOL_PROPERTY
G
SciTegic.value.DoubleValue
49.737

@<SCITEGIC>MOL_PROPERTY
E
SciTegic.value.DoubleValue
16.987

@<SCITEGIC>MOL_PROPERTY
-TS
SciTegic.value.DoubleValue
32.750

@<SCITEGIC>MOL_PROPERTY
U+W
SciTegic.value.DoubleValue
-4.475

@<SCITEGIC>MOL_PROPERTY
U
SciTegic.value.DoubleValue
49.278

@<SCITEGIC>MOL_PROPERTY
W
SciTegic.value.DoubleValue
-53.752

@<SCITEGIC>MOL_PROPERTY
W(PB)
SciTegic.value.DoubleValue
-56.043

@<SCITEGIC>MOL_PROPERTY
W(SA)
SciTegic.value.DoubleValue
2.291

@<SCITEGIC>MOL_PROPERTY
Valence
SciTegic.value.DoubleValue
3.047

@<SCITEGIC>MOL_PROPERTY
Coulomb
SciTegic.value.DoubleValue
45.459

@<SCITEGIC>MOL_PROPERTY
VdW
SciTegic.value.DoubleValue
0.771

@<SCITEGIC>MOL_PROPERTY
VdW6
SciTegic.value.DoubleValue
-7.730

@<SCITEGIC>MOL_PROPERTY
VdW12
SciTegic.value.DoubleValue
8.501

@<SCITEGIC>MOL_PROPERTY
Bond
SciTegic.value.DoubleValue
0.210

@<SCITEGIC>MOL_PROPERTY
Angle
SciTegic.value.DoubleValue
0.867

@<SCITEGIC>MOL_PROPERTY
Pdih
SciTegic.value.DoubleValue
1.970

@<SCITEGIC>MOL_PROPERTY
Idih
SciTegic.value.DoubleValue
0.000

@<SCITEGIC>MOL_PROPERTY
Tether
SciTegic.value.DoubleValue
0.000

@<TRIPOS>MOLECULE
guest-s14_vm2.mol2 : vm2 ligand conformer 45
          26          25           1
SMALL
USER_CHARGES
 
@<TRIPOS>ATOM
       1    C1      19.148989   18.711951   19.822569 C.3        1 MOL1        -0.2400
       2    H1      19.169688   19.766616   19.518801 H          1 MOL1         0.0971
       3    H2      18.943044   18.109147   18.928622 H          1 MOL1         0.0971
       4    H3      18.310945   18.569770   20.516056 H          1 MOL1         0.0971
       5    C2      20.492111   18.290986   20.460967 C.3        1 MOL1        -0.1385
       6    H4      21.277837   18.334749   19.693826 H          1 MOL1         0.0960
       7    H5      20.435340   17.241855   20.783212 H          1 MOL1         0.0960
       8    C3      20.912735   19.183072   21.653850 C.3        1 MOL1        -0.1409
       9    H6      21.920597   18.884628   21.973886 H          1 MOL1         0.0960
      10    H7      20.990720   20.227272   21.320966 H          1 MOL1         0.0960
      11    C4      19.950553   19.090548   22.862305 C.3        1 MOL1        -0.1409
      12    H8      19.832453   18.037156   23.148744 H          1 MOL1         0.0960
      13    H9      18.956264   19.457955   22.576439 H          1 MOL1         0.0960
      14    C5      20.466134   19.912515   24.067910 C.3        1 MOL1        -0.1409
      15    H10     21.447658   19.534331   24.383570 H          1 MOL1         0.0960
      16    H11     20.627452   20.952320   23.751462 H          1 MOL1         0.0960
      17    C6      19.488965   19.909670   25.270258 C.3        1 MOL1        -0.1450
      18    H12     18.540272   20.371859   24.966573 H          1 MOL1         0.0960
      19    H13     19.895539   20.542976   26.069895 H          1 MOL1         0.0960
      20    C7      19.195677   18.506124   25.838134 C.3        1 MOL1         0.0172
      21    H14     18.481340   18.589913   26.661666 H          1 MOL1         0.0934
      22    H15     18.747272   17.879524   25.062919 H          1 MOL1         0.0934
      23    N1      20.425836   17.794135   26.365006 N.4        1 MOL1        -0.5956
      24    H16     20.877161   18.322239   27.118874 H          1 MOL1         0.3624
      25    H17     21.125954   17.656478   25.629558 H          1 MOL1         0.3624
      26    H18     20.198020   16.867894   26.742290 H          1 MOL1         0.3624
@<TRIPOS>BOND
    1     1     2    1
    2     1     3    1
    3     1     4    1
    4     1     5    1
    5     5     6    1
    6     5     7    1
    7     5     8    1
    8     8     9    1
    9     8    10    1
   10     8    11    1
   11    11    12    1
   12    11    13    1
   13    11    14    1
   14    14    15    1
   15    14    16    1
   16    14    17    1
   17    17    18    1
   18    17    19    1
   19    17    20    1
   20    20    21    1
   21    20    22    1
   22    20    23    1
   23    23    24    1
   24    23    25    1
   25    23    26    1
@<TRIPOS>SUBSTRUCTURE
       1 MOL1            1 RESIDUE      1      MOL     
@<SCITEGIC>MOL_PROPERTY
VM2 Rank
SciTegic.value.IntegerValue
45

@<SCITEGIC>MOL_PROPERTY
Conf_Id
SciTegic.value.IntegerValue
460

@<SCITEGIC>MOL_PROPERTY
Probability
SciTegic.value.DoubleValue
0.61

@<SCITEGIC>MOL_PROPERTY
Sum Probability
SciTegic.value.DoubleValue
79.37

@<SCITEGIC>MOL_PROPERTY
Delta G
SciTegic.value.DoubleValue
1.481

@<SCITEGIC>MOL_PROPERTY
G
SciTegic.value.DoubleValue
49.742

@<SCITEGIC>MOL_PROPERTY
E
SciTegic.value.DoubleValue
16.991

@<SCITEGIC>MOL_PROPERTY
-TS
SciTegic.value.DoubleValue
32.750

@<SCITEGIC>MOL_PROPERTY
U+W
SciTegic.value.DoubleValue
-4.470

@<SCITEGIC>MOL_PROPERTY
U
SciTegic.value.DoubleValue
49.278

@<SCITEGIC>MOL_PROPERTY
W
SciTegic.value.DoubleValue
-53.748

@<SCITEGIC>MOL_PROPERTY
W(PB)
SciTegic.value.DoubleValue
-56.036

@<SCITEGIC>MOL_PROPERTY
W(SA)
SciTegic.value.DoubleValue
2.288

@<SCITEGIC>MOL_PROPERTY
Valence
SciTegic.value.DoubleValue
3.048

@<SCITEGIC>MOL_PROPERTY
Coulomb
SciTegic.value.DoubleValue
45.459

@<SCITEGIC>MOL_PROPERTY
VdW
SciTegic.value.DoubleValue
0.771

@<SCITEGIC>MOL_PROPERTY
VdW6
SciTegic.value.DoubleValue
-7.730

@<SCITEGIC>MOL_PROPERTY
VdW12
SciTegic.value.DoubleValue
8.501

@<SCITEGIC>MOL_PROPERTY
Bond
SciTegic.value.DoubleValue
0.210

@<SCITEGIC>MOL_PROPERTY
Angle
SciTegic.value.DoubleValue
0.867

@<SCITEGIC>MOL_PROPERTY
Pdih
SciTegic.value.DoubleValue
1.970

@<SCITEGIC>MOL_PROPERTY
Idih
SciTegic.value.DoubleValue
0.000

@<SCITEGIC>MOL_PROPERTY
Tether
SciTegic.value.DoubleValue
0.000

@<TRIPOS>MOLECULE
guest-s14_vm2.mol2 : vm2 ligand conformer 46
          26          25           1
SMALL
USER_CHARGES
 
@<TRIPOS>ATOM
       1    C1      20.382608   19.910919   19.621964 C.3        1 MOL1        -0.2400
       2    H1      19.359642   19.803628   19.238218 H          1 MOL1         0.0971
       3    H2      20.492504   20.926823   20.023315 H          1 MOL1         0.0971
       4    H3      21.072949   19.806799   18.774840 H          1 MOL1         0.0971
       5    C2      20.683292   18.851520   20.703349 C.3        1 MOL1        -0.1385
       6    H4      21.722388   18.962648   21.043698 H          1 MOL1         0.0960
       7    H5      20.599331   17.847911   20.263346 H          1 MOL1         0.0960
       8    C3      19.724219   18.975515   21.907901 C.3        1 MOL1        -0.1409
       9    H6      19.810976   19.984452   22.332033 H          1 MOL1         0.0960
      10    H7      18.687092   18.861417   21.563620 H          1 MOL1         0.0960
      11    C4      20.027875   17.917180   22.995216 C.3        1 MOL1        -0.1409
      12    H8      21.050925   18.054825   23.369830 H          1 MOL1         0.0960
      13    H9      20.004746   16.918379   22.537860 H          1 MOL1         0.0960
      14    C5      19.022454   17.936706   24.175549 C.3        1 MOL1        -0.1409
      15    H10     18.018707   17.702083   23.795251 H          1 MOL1         0.0960
      16    H11     19.274413   17.123140   24.868990 H          1 MOL1         0.0960
      17    C6      18.959988   19.274668   24.958303 C.3        1 MOL1        -0.1450
      18    H12     18.259287   19.169353   25.797132 H          1 MOL1         0.0960
      19    H13     18.540946   20.059444   24.315679 H          1 MOL1         0.0960
      20    C7      20.324387   19.748804   25.497663 C.3        1 MOL1         0.0172
      21    H14     21.020232   19.890878   24.666674 H          1 MOL1         0.0934
      22    H15     20.200843   20.709030   26.005765 H          1 MOL1         0.0934
      23    N1      20.956178   18.783688   26.481055 N.4        1 MOL1        -0.5956
      24    H16     21.860152   19.125916   26.824278 H          1 MOL1         0.3624
      25    H17     21.122140   17.866519   26.055471 H          1 MOL1         0.3624
      26    H18     20.360946   18.633726   27.302061 H          1 MOL1         0.3624
@<TRIPOS>BOND
    1     1     2    1
    2     1     3    1
    3     1     4    1
    4     1     5    1
    5     5     6    1
    6     5     7    1
    7     5     8    1
    8     8     9    1
    9     8    10    1
   10     8    11    1
   11    11    12    1
   12    11    13    1
   13    11    14    1
   14    14    15    1
   15    14    16    1
   16    14    17    1
   17    17    18    1
   18    17    19    1
   19    17    20    1
   20    20    21    1
   21    20    22    1
   22    20    23    1
   23    23    24    1
   24    23    25    1
   25    23    26    1
@<TRIPOS>SUBSTRUCTURE
       1 MOL1            1 RESIDUE      1      MOL     
@<SCITEGIC>MOL_PROPERTY
VM2 Rank
SciTegic.value.IntegerValue
46

@<SCITEGIC>MOL_PROPERTY
Conf_Id
SciTegic.value.IntegerValue
139

@<SCITEGIC>MOL_PROPERTY
Probability
SciTegic.value.DoubleValue
0.60

@<SCITEGIC>MOL_PROPERTY
Sum Probability
SciTegic.value.DoubleValue
79.97

@<SCITEGIC>MOL_PROPERTY
Delta G
SciTegic.value.DoubleValue
1.488

@<SCITEGIC>MOL_PROPERTY
G
SciTegic.value.DoubleValue
49.749

@<SCITEGIC>MOL_PROPERTY
E
SciTegic.value.DoubleValue
16.848

@<SCITEGIC>MOL_PROPERTY
-TS
SciTegic.value.DoubleValue
32.900

@<SCITEGIC>MOL_PROPERTY
U+W
SciTegic.value.DoubleValue
-4.613

@<SCITEGIC>MOL_PROPERTY
U
SciTegic.value.DoubleValue
49.198

@<SCITEGIC>MOL_PROPERTY
W
SciTegic.value.DoubleValue
-53.811

@<SCITEGIC>MOL_PROPERTY
W(PB)
SciTegic.value.DoubleValue
-56.088

@<SCITEGIC>MOL_PROPERTY
W(SA)
SciTegic.value.DoubleValue
2.276

@<SCITEGIC>MOL_PROPERTY
Valence
SciTegic.value.DoubleValue
3.018

@<SCITEGIC>MOL_PROPERTY
Coulomb
SciTegic.value.DoubleValue
45.590

@<SCITEGIC>MOL_PROPERTY
VdW
SciTegic.value.DoubleValue
0.590

@<SCITEGIC>MOL_PROPERTY
VdW6
SciTegic.value.DoubleValue
-8.074

@<SCITEGIC>MOL_PROPERTY
VdW12
SciTegic.value.DoubleValue
8.663

@<SCITEGIC>MOL_PROPERTY
Bond
SciTegic.value.DoubleValue
0.222

@<SCITEGIC>MOL_PROPERTY
Angle
SciTegic.value.DoubleValue
0.958

@<SCITEGIC>MOL_PROPERTY
Pdih
SciTegic.value.DoubleValue
1.839

@<SCITEGIC>MOL_PROPERTY
Idih
SciTegic.value.DoubleValue
0.000

@<SCITEGIC>MOL_PROPERTY
Tether
SciTegic.value.DoubleValue
0.000

@<TRIPOS>MOLECULE
guest-s14_vm2.mol2 : vm2 ligand conformer 47
          26          25           1
SMALL
USER_CHARGES
 
@<TRIPOS>ATOM
       1    C1      19.387028   19.949180   20.201275 C.3        1 MOL1        -0.2400
       2    H1      18.463696   20.191861   19.659608 H          1 MOL1         0.0971
       3    H2      19.465529   20.642955   21.047568 H          1 MOL1         0.0971
       4    H3      20.231872   20.133584   19.525123 H          1 MOL1         0.0971
       5    C2      19.366025   18.478439   20.675343 C.3        1 MOL1        -0.1385
       6    H4      19.167281   17.830871   19.809997 H          1 MOL1         0.0960
       7    H5      18.525666   18.323221   21.365065 H          1 MOL1         0.0960
       8    C3      20.692781   18.024639   21.336000 C.3        1 MOL1        -0.1409
       9    H6      20.605138   16.965405   21.614330 H          1 MOL1         0.0960
      10    H7      21.496056   18.072963   20.587971 H          1 MOL1         0.0960
      11    C4      21.125282   18.839157   22.582585 C.3        1 MOL1        -0.1409
      12    H8      21.327082   19.880241   22.297702 H          1 MOL1         0.0960
      13    H9      22.080668   18.434778   22.944414 H          1 MOL1         0.0960
      14    C5      20.093560   18.801181   23.735259 C.3        1 MOL1        -0.1409
      15    H10     19.155728   19.272266   23.412333 H          1 MOL1         0.0960
      16    H11     19.861115   17.755828   23.977980 H          1 MOL1         0.0960
      17    C6      20.616423   19.530935   24.995102 C.3        1 MOL1        -0.1450
      18    H12     20.884330   20.562942   24.732127 H          1 MOL1         0.0960
      19    H13     21.535970   19.050310   25.354791 H          1 MOL1         0.0960
      20    C7      19.578510   19.571426   26.133229 C.3        1 MOL1         0.0172
      21    H14     19.970822   20.168774   26.960770 H          1 MOL1         0.0934
      22    H15     18.659579   20.044629   25.776794 H          1 MOL1         0.0934
      23    N1      19.221392   18.204042   26.682207 N.4        1 MOL1        -0.5956
      24    H16     20.043044   17.716960   27.054567 H          1 MOL1         0.3624
      25    H17     18.811902   17.600982   25.962115 H          1 MOL1         0.3624
      26    H18     18.538842   18.266604   27.445437 H          1 MOL1         0.3624
@<TRIPOS>BOND
    1     1     2    1
    2     1     3    1
    3     1     4    1
    4     1     5    1
    5     5     6    1
    6     5     7    1
    7     5     8    1
    8     8     9    1
    9     8    10    1
   10     8    11    1
   11    11    12    1
   12    11    13    1
   13    11    14    1
   14    14    15    1
   15    14    16    1
   16    14    17    1
   17    17    18    1
   18    17    19    1
   19    17    20    1
   20    20    21    1
   21    20    22    1
   22    20    23    1
   23    23    24    1
   24    23    25    1
   25    23    26    1
@<TRIPOS>SUBSTRUCTURE
       1 MOL1            1 RESIDUE      1      MOL     
@<SCITEGIC>MOL_PROPERTY
VM2 Rank
SciTegic.value.IntegerValue
47

@<SCITEGIC>MOL_PROPERTY
Conf_Id
SciTegic.value.IntegerValue
222

@<SCITEGIC>MOL_PROPERTY
Probability
SciTegic.value.DoubleValue
0.59

@<SCITEGIC>MOL_PROPERTY
Sum Probability
SciTegic.value.DoubleValue
80.56

@<SCITEGIC>MOL_PROPERTY
Delta G
SciTegic.value.DoubleValue
1.500

@<SCITEGIC>MOL_PROPERTY
G
SciTegic.value.DoubleValue
49.761

@<SCITEGIC>MOL_PROPERTY
E
SciTegic.value.DoubleValue
16.873

@<SCITEGIC>MOL_PROPERTY
-TS
SciTegic.value.DoubleValue
32.888

@<SCITEGIC>MOL_PROPERTY
U+W
SciTegic.value.DoubleValue
-4.588

@<SCITEGIC>MOL_PROPERTY
U
SciTegic.value.DoubleValue
49.147

@<SCITEGIC>MOL_PROPERTY
W
SciTegic.value.DoubleValue
-53.735

@<SCITEGIC>MOL_PROPERTY
W(PB)
SciTegic.value.DoubleValue
-56.022

@<SCITEGIC>MOL_PROPERTY
W(SA)
SciTegic.value.DoubleValue
2.286

@<SCITEGIC>MOL_PROPERTY
Valence
SciTegic.value.DoubleValue
3.219

@<SCITEGIC>MOL_PROPERTY
Coulomb
SciTegic.value.DoubleValue
45.149

@<SCITEGIC>MOL_PROPERTY
VdW
SciTegic.value.DoubleValue
0.779

@<SCITEGIC>MOL_PROPERTY
VdW6
SciTegic.value.DoubleValue
-7.884

@<SCITEGIC>MOL_PROPERTY
VdW12
SciTegic.value.DoubleValue
8.663

@<SCITEGIC>MOL_PROPERTY
Bond
SciTegic.value.DoubleValue
0.228

@<SCITEGIC>MOL_PROPERTY
Angle
SciTegic.value.DoubleValue
1.077

@<SCITEGIC>MOL_PROPERTY
Pdih
SciTegic.value.DoubleValue
1.914

@<SCITEGIC>MOL_PROPERTY
Idih
SciTegic.value.DoubleValue
0.000

@<SCITEGIC>MOL_PROPERTY
Tether
SciTegic.value.DoubleValue
0.000

@<TRIPOS>MOLECULE
guest-s14_vm2.mol2 : vm2 ligand conformer 48
          26          25           1
SMALL
USER_CHARGES
 
@<TRIPOS>ATOM
       1    C1      19.885663   19.749040   19.663149 C.3        1 MOL1        -0.2400
       2    H1      18.818518   19.720779   19.916066 H          1 MOL1         0.0971
       3    H2      20.291801   20.714681   19.991168 H          1 MOL1         0.0971
       4    H3      19.966942   19.704681   18.569374 H          1 MOL1         0.0971
       5    C2      20.653409   18.574397   20.310780 C.3        1 MOL1        -0.1385
       6    H4      21.686759   18.576857   19.936672 H          1 MOL1         0.0960
       7    H5      20.211837   17.621372   19.987527 H          1 MOL1         0.0960
       8    C3      20.684107   18.639846   21.856793 C.3        1 MOL1        -0.1409
       9    H6      21.330220   17.832359   22.227733 H          1 MOL1         0.0960
      10    H7      21.154762   19.582213   22.166418 H          1 MOL1         0.0960
      11    C4      19.282689   18.505999   22.504446 C.3        1 MOL1        -0.1409
      12    H8      18.778823   17.622495   22.088925 H          1 MOL1         0.0960
      13    H9      18.660761   19.371046   22.238870 H          1 MOL1         0.0960
      14    C5      19.328635   18.366446   24.045789 C.3        1 MOL1        -0.1409
      15    H10     18.309262   18.175816   24.409246 H          1 MOL1         0.0960
      16    H11     19.922852   17.482142   24.312172 H          1 MOL1         0.0960
      17    C6      19.891708   19.620326   24.760223 C.3        1 MOL1        -0.1450
      18    H12     19.346049   20.509835   24.418439 H          1 MOL1         0.0960
      19    H13     20.944669   19.774293   24.492383 H          1 MOL1         0.0960
      20    C7      19.769440   19.532170   26.293586 C.3        1 MOL1         0.0172
      21    H14     20.108357   20.471255   26.739459 H          1 MOL1         0.0934
      22    H15     18.722831   19.380961   26.571321 H          1 MOL1         0.0934
      23    N1      20.585349   18.410775   26.906233 N.4        1 MOL1        -0.5956
      24    H16     20.491270   18.385511   27.927412 H          1 MOL1         0.3624
      25    H17     21.584579   18.510249   26.699888 H          1 MOL1         0.3624
      26    H18     20.293016   17.493556   26.555227 H          1 MOL1         0.3624
@<TRIPOS>BOND
    1     1     2    1
    2     1     3    1
    3     1     4    1
    4     1     5    1
    5     5     6    1
    6     5     7    1
    7     5     8    1
    8     8     9    1
    9     8    10    1
   10     8    11    1
   11    11    12    1
   12    11    13    1
   13    11    14    1
   14    14    15    1
   15    14    16    1
   16    14    17    1
   17    17    18    1
   18    17    19    1
   19    17    20    1
   20    20    21    1
   21    20    22    1
   22    20    23    1
   23    23    24    1
   24    23    25    1
   25    23    26    1
@<TRIPOS>SUBSTRUCTURE
       1 MOL1            1 RESIDUE      1      MOL     
@<SCITEGIC>MOL_PROPERTY
VM2 Rank
SciTegic.value.IntegerValue
48

@<SCITEGIC>MOL_PROPERTY
Conf_Id
SciTegic.value.IntegerValue
506

@<SCITEGIC>MOL_PROPERTY
Probability
SciTegic.value.DoubleValue
0.59

@<SCITEGIC>MOL_PROPERTY
Sum Probability
SciTegic.value.DoubleValue
81.15

@<SCITEGIC>MOL_PROPERTY
Delta G
SciTegic.value.DoubleValue
1.502

@<SCITEGIC>MOL_PROPERTY
G
SciTegic.value.DoubleValue
49.763

@<SCITEGIC>MOL_PROPERTY
E
SciTegic.value.DoubleValue
17.062

@<SCITEGIC>MOL_PROPERTY
-TS
SciTegic.value.DoubleValue
32.701

@<SCITEGIC>MOL_PROPERTY
U+W
SciTegic.value.DoubleValue
-4.399

@<SCITEGIC>MOL_PROPERTY
U
SciTegic.value.DoubleValue
49.228

@<SCITEGIC>MOL_PROPERTY
W
SciTegic.value.DoubleValue
-53.627

@<SCITEGIC>MOL_PROPERTY
W(PB)
SciTegic.value.DoubleValue
-55.902

@<SCITEGIC>MOL_PROPERTY
W(SA)
SciTegic.value.DoubleValue
2.275

@<SCITEGIC>MOL_PROPERTY
Valence
SciTegic.value.DoubleValue
3.267

@<SCITEGIC>MOL_PROPERTY
Coulomb
SciTegic.value.DoubleValue
45.067

@<SCITEGIC>MOL_PROPERTY
VdW
SciTegic.value.DoubleValue
0.893

@<SCITEGIC>MOL_PROPERTY
VdW6
SciTegic.value.DoubleValue
-7.615

@<SCITEGIC>MOL_PROPERTY
VdW12
SciTegic.value.DoubleValue
8.508

@<SCITEGIC>MOL_PROPERTY
Bond
SciTegic.value.DoubleValue
0.224

@<SCITEGIC>MOL_PROPERTY
Angle
SciTegic.value.DoubleValue
0.867

@<SCITEGIC>MOL_PROPERTY
Pdih
SciTegic.value.DoubleValue
2.176

@<SCITEGIC>MOL_PROPERTY
Idih
SciTegic.value.DoubleValue
0.000

@<SCITEGIC>MOL_PROPERTY
Tether
SciTegic.value.DoubleValue
0.000

@<TRIPOS>MOLECULE
guest-s14_vm2.mol2 : vm2 ligand conformer 49
          26          25           1
SMALL
USER_CHARGES
 
@<TRIPOS>ATOM
       1    C1      21.456143   18.705654   20.507652 C.3        1 MOL1        -0.2400
       2    H1      21.732070   18.168600   21.423685 H          1 MOL1         0.0971
       3    H2      21.116555   17.970617   19.766473 H          1 MOL1         0.0971
       4    H3      22.364896   19.181616   20.117183 H          1 MOL1         0.0971
       5    C2      20.364222   19.764907   20.779629 C.3        1 MOL1        -0.1385
       6    H4      20.207503   20.353924   19.865205 H          1 MOL1         0.0960
       7    H5      20.718508   20.476627   21.537177 H          1 MOL1         0.0960
       8    C3      19.006355   19.154240   21.211019 C.3        1 MOL1        -0.1409
       9    H6      18.282879   19.968171   21.356746 H          1 MOL1         0.0960
      10    H7      18.612403   18.546854   20.384570 H          1 MOL1         0.0960
      11    C4      19.048023   18.281718   22.492251 C.3        1 MOL1        -0.1409
      12    H8      19.680337   17.399845   22.324204 H          1 MOL1         0.0960
      13    H9      18.036357   17.896176   22.679464 H          1 MOL1         0.0960
      14    C5      19.536850   19.045630   23.746102 C.3        1 MOL1        -0.1409
      15    H10     20.572081   19.376089   23.594821 H          1 MOL1         0.0960
      16    H11     18.927948   19.949600   23.885478 H          1 MOL1         0.0960
      17    C6      19.456521   18.168607   25.017977 C.3        1 MOL1        -0.1450
      18    H12     20.082681   17.274385   24.898549 H          1 MOL1         0.0960
      19    H13     18.425794   17.813925   25.151077 H          1 MOL1         0.0960
      20    C7      19.878849   18.926253   26.291552 C.3        1 MOL1         0.0172
      21    H14     19.262830   19.821951   26.408372 H          1 MOL1         0.0934
      22    H15     19.718969   18.286460   27.163708 H          1 MOL1         0.0934
      23    N1      21.334036   19.351990   26.294818 N.4        1 MOL1        -0.5956
      24    H16     21.585373   19.840972   27.160882 H          1 MOL1         0.3624
      25    H17     21.545513   19.987425   25.519364 H          1 MOL1         0.3624
      26    H18     21.965701   18.548943   26.210426 H          1 MOL1         0.3624
@<TRIPOS>BOND
    1     1     2    1
    2     1     3    1
    3     1     4    1
    4     1     5    1
    5     5     6    1
    6     5     7    1
    7     5     8    1
    8     8     9    1
    9     8    10    1
   10     8    11    1
   11    11    12    1
   12    11    13    1
   13    11    14    1
   14    14    15    1
   15    14    16    1
   16    14    17    1
   17    17    18    1
   18    17    19    1
   19    17    20    1
   20    20    21    1
   21    20    22    1
   22    20    23    1
   23    23    24    1
   24    23    25    1
   25    23    26    1
@<TRIPOS>SUBSTRUCTURE
       1 MOL1            1 RESIDUE      1      MOL     
@<SCITEGIC>MOL_PROPERTY
VM2 Rank
SciTegic.value.IntegerValue
49

@<SCITEGIC>MOL_PROPERTY
Conf_Id
SciTegic.value.IntegerValue
946

@<SCITEGIC>MOL_PROPERTY
Probability
SciTegic.value.DoubleValue
0.58

@<SCITEGIC>MOL_PROPERTY
Sum Probability
SciTegic.value.DoubleValue
81.73

@<SCITEGIC>MOL_PROPERTY
Delta G
SciTegic.value.DoubleValue
1.507

@<SCITEGIC>MOL_PROPERTY
G
SciTegic.value.DoubleValue
49.768

@<SCITEGIC>MOL_PROPERTY
E
SciTegic.value.DoubleValue
16.878

@<SCITEGIC>MOL_PROPERTY
-TS
SciTegic.value.DoubleValue
32.890

@<SCITEGIC>MOL_PROPERTY
U+W
SciTegic.value.DoubleValue
-4.584

@<SCITEGIC>MOL_PROPERTY
U
SciTegic.value.DoubleValue
49.426

@<SCITEGIC>MOL_PROPERTY
W
SciTegic.value.DoubleValue
-54.010

@<SCITEGIC>MOL_PROPERTY
W(PB)
SciTegic.value.DoubleValue
-56.293

@<SCITEGIC>MOL_PROPERTY
W(SA)
SciTegic.value.DoubleValue
2.284

@<SCITEGIC>MOL_PROPERTY
Valence
SciTegic.value.DoubleValue
3.214

@<SCITEGIC>MOL_PROPERTY
Coulomb
SciTegic.value.DoubleValue
45.444

@<SCITEGIC>MOL_PROPERTY
VdW
SciTegic.value.DoubleValue
0.768

@<SCITEGIC>MOL_PROPERTY
VdW6
SciTegic.value.DoubleValue
-7.916

@<SCITEGIC>MOL_PROPERTY
VdW12
SciTegic.value.DoubleValue
8.684

@<SCITEGIC>MOL_PROPERTY
Bond
SciTegic.value.DoubleValue
0.230

@<SCITEGIC>MOL_PROPERTY
Angle
SciTegic.value.DoubleValue
1.078

@<SCITEGIC>MOL_PROPERTY
Pdih
SciTegic.value.DoubleValue
1.906

@<SCITEGIC>MOL_PROPERTY
Idih
SciTegic.value.DoubleValue
0.000

@<SCITEGIC>MOL_PROPERTY
Tether
SciTegic.value.DoubleValue
0.000

@<TRIPOS>MOLECULE
guest-s14_vm2.mol2 : vm2 ligand conformer 50
          26          25           1
SMALL
USER_CHARGES
 
@<TRIPOS>ATOM
       1    C1      19.471603   19.475769   19.649030 C.3        1 MOL1        -0.2400
       2    H1      19.905452   20.436751   19.952102 H          1 MOL1         0.0971
       3    H2      19.531581   19.417044   18.554556 H          1 MOL1         0.0971
       4    H3      18.409842   19.474148   19.927721 H          1 MOL1         0.0971
       5    C2      20.217865   18.287160   20.296288 C.3        1 MOL1        -0.1385
       6    H4      21.281735   18.326101   20.023522 H          1 MOL1         0.0960
       7    H5      19.826606   17.350720   19.874657 H          1 MOL1         0.0960
       8    C3      20.073443   18.237631   21.836442 C.3        1 MOL1        -0.1409
       9    H6      19.008567   18.168058   22.094586 H          1 MOL1         0.0960
      10    H7      20.543490   17.314207   22.201732 H          1 MOL1         0.0960
      11    C4      20.717164   19.451885   22.552373 C.3        1 MOL1        -0.1409
      12    H8      20.179597   20.372546   22.289628 H          1 MOL1         0.0960
      13    H9      21.745891   19.578668   22.188006 H          1 MOL1         0.0960
      14    C5      20.755611   19.307347   24.093461 C.3        1 MOL1        -0.1409
      15    H10     21.321927   18.404635   24.358878 H          1 MOL1         0.0960
      16    H11     21.314287   20.157203   24.509621 H          1 MOL1         0.0960
      17    C6      19.349602   19.262845   24.742183 C.3        1 MOL1        -0.1450
      18    H12     18.806992   18.364709   24.421091 H          1 MOL1         0.0960
      19    H13     18.762901   20.125293   24.399035 H          1 MOL1         0.0960
      20    C7      19.407345   19.293363   26.281552 C.3        1 MOL1         0.0172
      21    H14     19.944417   20.186483   26.612130 H          1 MOL1         0.0934
      22    H15     18.391000   19.338733   26.682216 H          1 MOL1         0.0934
      23    N1      20.088366   18.083001   26.889671 N.4        1 MOL1        -0.5956
      24    H16     20.101076   18.128130   27.914414 H          1 MOL1         0.3624
      25    H17     21.061926   18.000581   26.580893 H          1 MOL1         0.3624
      26    H18     19.614128   17.210798   26.634144 H          1 MOL1         0.3624
@<TRIPOS>BOND
    1     1     2    1
    2     1     3    1
    3     1     4    1
    4     1     5    1
    5     5     6    1
    6     5     7    1
    7     5     8    1
    8     8     9    1
    9     8    10    1
   10     8    11    1
   11    11    12    1
   12    11    13    1
   13    11    14    1
   14    14    15    1
   15    14    16    1
   16    14    17    1
   17    17    18    1
   18    17    19    1
   19    17    20    1
   20    20    21    1
   21    20    22    1
   22    20    23    1
   23    23    24    1
   24    23    25    1
   25    23    26    1
@<TRIPOS>SUBSTRUCTURE
       1 MOL1            1 RESIDUE      1      MOL     
@<SCITEGIC>MOL_PROPERTY
VM2 Rank
SciTegic.value.IntegerValue
50

@<SCITEGIC>MOL_PROPERTY
Conf_Id
SciTegic.value.IntegerValue
1278

@<SCITEGIC>MOL_PROPERTY
Probability
SciTegic.value.DoubleValue
0.57

@<SCITEGIC>MOL_PROPERTY
Sum Probability
SciTegic.value.DoubleValue
82.30

@<SCITEGIC>MOL_PROPERTY
Delta G
SciTegic.value.DoubleValue
1.514

@<SCITEGIC>MOL_PROPERTY
G
SciTegic.value.DoubleValue
49.775

@<SCITEGIC>MOL_PROPERTY
E
SciTegic.value.DoubleValue
17.074

@<SCITEGIC>MOL_PROPERTY
-TS
SciTegic.value.DoubleValue
32.701

@<SCITEGIC>MOL_PROPERTY
U+W
SciTegic.value.DoubleValue
-4.388

@<SCITEGIC>MOL_PROPERTY
U
SciTegic.value.DoubleValue
49.228

@<SCITEGIC>MOL_PROPERTY
W
SciTegic.value.DoubleValue
-53.616

@<SCITEGIC>MOL_PROPERTY
W(PB)
SciTegic.value.DoubleValue
-55.904

@<SCITEGIC>MOL_PROPERTY
W(SA)
SciTegic.value.DoubleValue
2.288

@<SCITEGIC>MOL_PROPERTY
Valence
SciTegic.value.DoubleValue
3.267

@<SCITEGIC>MOL_PROPERTY
Coulomb
SciTegic.value.DoubleValue
45.067

@<SCITEGIC>MOL_PROPERTY
VdW
SciTegic.value.DoubleValue
0.893

@<SCITEGIC>MOL_PROPERTY
VdW6
SciTegic.value.DoubleValue
-7.615

@<SCITEGIC>MOL_PROPERTY
VdW12
SciTegic.value.DoubleValue
8.509

@<SCITEGIC>MOL_PROPERTY
Bond
SciTegic.value.DoubleValue
0.224

@<SCITEGIC>MOL_PROPERTY
Angle
SciTegic.value.DoubleValue
0.867

@<SCITEGIC>MOL_PROPERTY
Pdih
SciTegic.value.DoubleValue
2.176

@<SCITEGIC>MOL_PROPERTY
Idih
SciTegic.value.DoubleValue
0.000

@<SCITEGIC>MOL_PROPERTY
Tether
SciTegic.value.DoubleValue
0.000

@<TRIPOS>MOLECULE
guest-s14_vm2.mol2 : vm2 ligand conformer 51
          26          25           1
SMALL
USER_CHARGES
 
@<TRIPOS>ATOM
       1    C1      18.670508   19.465641   20.286681 C.3        1 MOL1        -0.2400
       2    H1      18.669832   20.545807   20.482252 H          1 MOL1         0.0971
       3    H2      18.193324   19.300791   19.311976 H          1 MOL1         0.0971
       4    H3      18.046304   18.977834   21.045509 H          1 MOL1         0.0971
       5    C2      20.109558   18.901669   20.286257 C.3        1 MOL1        -0.1385
       6    H4      20.656492   19.328416   19.433885 H          1 MOL1         0.0960
       7    H5      20.080950   17.815664   20.120364 H          1 MOL1         0.0960
       8    C3      20.893160   19.212532   21.584369 C.3        1 MOL1        -0.1409
       9    H6      21.931415   18.877808   21.452909 H          1 MOL1         0.0960
      10    H7      20.935870   20.300003   21.735310 H          1 MOL1         0.0960
      11    C4      20.298246   18.533712   22.841388 C.3        1 MOL1        -0.1409
      12    H8      20.214062   17.452051   22.668157 H          1 MOL1         0.0960
      13    H9      19.282433   18.909744   23.015299 H          1 MOL1         0.0960
      14    C5      21.168280   18.789331   24.095494 C.3        1 MOL1        -0.1409
      15    H10     22.193577   18.446763   23.898747 H          1 MOL1         0.0960
      16    H11     21.238851   19.868839   24.284603 H          1 MOL1         0.0960
      17    C6      20.642528   18.065496   25.360532 C.3        1 MOL1        -0.1450
      18    H12     21.328072   18.253733   26.197430 H          1 MOL1         0.0960
      19    H13     20.658916   16.980858   25.189800 H          1 MOL1         0.0960
      20    C7      19.215707   18.479314   25.774715 C.3        1 MOL1         0.0172
      21    H14     18.515196   18.251868   24.967138 H          1 MOL1         0.0934
      22    H15     18.913716   17.907578   26.656432 H          1 MOL1         0.0934
      23    N1      19.083014   19.951305   26.111564 N.4        1 MOL1        -0.5956
      24    H16     19.323877   20.544540   25.311527 H          1 MOL1         0.3624
      25    H17     19.698335   20.221082   26.885845 H          1 MOL1         0.3624
      26    H18     18.126136   20.193894   26.390309 H          1 MOL1         0.3624
@<TRIPOS>BOND
    1     1     2    1
    2     1     3    1
    3     1     4    1
    4     1     5    1
    5     5     6    1
    6     5     7    1
    7     5     8    1
    8     8     9    1
    9     8    10    1
   10     8    11    1
   11    11    12    1
   12    11    13    1
   13    11    14    1
   14    14    15    1
   15    14    16    1
   16    14    17    1
   17    17    18    1
   18    17    19    1
   19    17    20    1
   20    20    21    1
   21    20    22    1
   22    20    23    1
   23    23    24    1
   24    23    25    1
   25    23    26    1
@<TRIPOS>SUBSTRUCTURE
       1 MOL1            1 RESIDUE      1      MOL     
@<SCITEGIC>MOL_PROPERTY
VM2 Rank
SciTegic.value.IntegerValue
51

@<SCITEGIC>MOL_PROPERTY
Conf_Id
SciTegic.value.IntegerValue
1551

@<SCITEGIC>MOL_PROPERTY
Probability
SciTegic.value.DoubleValue
0.57

@<SCITEGIC>MOL_PROPERTY
Sum Probability
SciTegic.value.DoubleValue
82.87

@<SCITEGIC>MOL_PROPERTY
Delta G
SciTegic.value.DoubleValue
1.522

@<SCITEGIC>MOL_PROPERTY
G
SciTegic.value.DoubleValue
49.783

@<SCITEGIC>MOL_PROPERTY
E
SciTegic.value.DoubleValue
17.034

@<SCITEGIC>MOL_PROPERTY
-TS
SciTegic.value.DoubleValue
32.748

@<SCITEGIC>MOL_PROPERTY
U+W
SciTegic.value.DoubleValue
-4.428

@<SCITEGIC>MOL_PROPERTY
U
SciTegic.value.DoubleValue
49.414

@<SCITEGIC>MOL_PROPERTY
W
SciTegic.value.DoubleValue
-53.841

@<SCITEGIC>MOL_PROPERTY
W(PB)
SciTegic.value.DoubleValue
-56.137

@<SCITEGIC>MOL_PROPERTY
W(SA)
SciTegic.value.DoubleValue
2.296

@<SCITEGIC>MOL_PROPERTY
Valence
SciTegic.value.DoubleValue
3.043

@<SCITEGIC>MOL_PROPERTY
Coulomb
SciTegic.value.DoubleValue
45.606

@<SCITEGIC>MOL_PROPERTY
VdW
SciTegic.value.DoubleValue
0.764

@<SCITEGIC>MOL_PROPERTY
VdW6
SciTegic.value.DoubleValue
-7.758

@<SCITEGIC>MOL_PROPERTY
VdW12
SciTegic.value.DoubleValue
8.522

@<SCITEGIC>MOL_PROPERTY
Bond
SciTegic.value.DoubleValue
0.212

@<SCITEGIC>MOL_PROPERTY
Angle
SciTegic.value.DoubleValue
0.867

@<SCITEGIC>MOL_PROPERTY
Pdih
SciTegic.value.DoubleValue
1.964

@<SCITEGIC>MOL_PROPERTY
Idih
SciTegic.value.DoubleValue
0.000

@<SCITEGIC>MOL_PROPERTY
Tether
SciTegic.value.DoubleValue
0.000

@<TRIPOS>MOLECULE
guest-s14_vm2.mol2 : vm2 ligand conformer 52
          26          25           1
SMALL
USER_CHARGES
 
@<TRIPOS>ATOM
       1    C1      20.175807   20.460972   20.337019 C.3        1 MOL1        -0.2400
       2    H1      19.173917   20.879159   20.499324 H          1 MOL1         0.0971
       3    H2      20.832976   20.820194   21.138578 H          1 MOL1         0.0971
       4    H3      20.558896   20.865055   19.391033 H          1 MOL1         0.0971
       5    C2      20.132240   18.916781   20.286956 C.3        1 MOL1        -0.1385
       6    H4      21.149565   18.522313   20.155845 H          1 MOL1         0.0960
       7    H5      19.565748   18.607525   19.397442 H          1 MOL1         0.0960
       8    C3      19.480229   18.278285   21.537142 C.3        1 MOL1        -0.1409
       9    H6      18.456683   18.660698   21.652533 H          1 MOL1         0.0960
      10    H7      19.388665   17.196491   21.367929 H          1 MOL1         0.0960
      11    C4      20.278347   18.520533   22.840652 C.3        1 MOL1        -0.1409
      12    H8      20.321105   19.596579   23.049985 H          1 MOL1         0.0960
      13    H9      21.313809   18.179310   22.704736 H          1 MOL1         0.0960
      14    C5      19.645485   17.782149   24.044543 C.3        1 MOL1        -0.1409
      15    H10     18.616526   18.134429   24.196917 H          1 MOL1         0.0960
      16    H11     19.569473   16.711181   23.810989 H          1 MOL1         0.0960
      17    C6      20.457494   17.943089   25.354280 C.3        1 MOL1        -0.1450
      18    H12     21.456423   17.508383   25.216336 H          1 MOL1         0.0960
      19    H13     19.978041   17.360655   26.152212 H          1 MOL1         0.0960
      20    C7      20.614434   19.404491   25.821486 C.3        1 MOL1         0.0172
      21    H14     21.217137   19.431081   26.733377 H          1 MOL1         0.0934
      22    H15     21.134334   19.984457   25.054693 H          1 MOL1         0.0934
      23    N1      19.296963   20.092699   26.118923 N.4        1 MOL1        -0.5956
      24    H16     19.434271   21.059056   26.434307 H          1 MOL1         0.3624
      25    H17     18.772920   19.608663   26.855129 H          1 MOL1         0.3624
      26    H18     18.694558   20.128223   25.290762 H          1 MOL1         0.3624
@<TRIPOS>BOND
    1     1     2    1
    2     1     3    1
    3     1     4    1
    4     1     5    1
    5     5     6    1
    6     5     7    1
    7     5     8    1
    8     8     9    1
    9     8    10    1
   10     8    11    1
   11    11    12    1
   12    11    13    1
   13    11    14    1
   14    14    15    1
   15    14    16    1
   16    14    17    1
   17    17    18    1
   18    17    19    1
   19    17    20    1
   20    20    21    1
   21    20    22    1
   22    20    23    1
   23    23    24    1
   24    23    25    1
   25    23    26    1
@<TRIPOS>SUBSTRUCTURE
       1 MOL1            1 RESIDUE      1      MOL     
@<SCITEGIC>MOL_PROPERTY
VM2 Rank
SciTegic.value.IntegerValue
52

@<SCITEGIC>MOL_PROPERTY
Conf_Id
SciTegic.value.IntegerValue
1631

@<SCITEGIC>MOL_PROPERTY
Probability
SciTegic.value.DoubleValue
0.56

@<SCITEGIC>MOL_PROPERTY
Sum Probability
SciTegic.value.DoubleValue
83.43

@<SCITEGIC>MOL_PROPERTY
Delta G
SciTegic.value.DoubleValue
1.526

@<SCITEGIC>MOL_PROPERTY
G
SciTegic.value.DoubleValue
49.787

@<SCITEGIC>MOL_PROPERTY
E
SciTegic.value.DoubleValue
17.039

@<SCITEGIC>MOL_PROPERTY
-TS
SciTegic.value.DoubleValue
32.748

@<SCITEGIC>MOL_PROPERTY
U+W
SciTegic.value.DoubleValue
-4.423

@<SCITEGIC>MOL_PROPERTY
U
SciTegic.value.DoubleValue
49.413

@<SCITEGIC>MOL_PROPERTY
W
SciTegic.value.DoubleValue
-53.836

@<SCITEGIC>MOL_PROPERTY
W(PB)
SciTegic.value.DoubleValue
-56.107

@<SCITEGIC>MOL_PROPERTY
W(SA)
SciTegic.value.DoubleValue
2.271

@<SCITEGIC>MOL_PROPERTY
Valence
SciTegic.value.DoubleValue
3.043

@<SCITEGIC>MOL_PROPERTY
Coulomb
SciTegic.value.DoubleValue
45.606

@<SCITEGIC>MOL_PROPERTY
VdW
SciTegic.value.DoubleValue
0.764

@<SCITEGIC>MOL_PROPERTY
VdW6
SciTegic.value.DoubleValue
-7.758

@<SCITEGIC>MOL_PROPERTY
VdW12
SciTegic.value.DoubleValue
8.522

@<SCITEGIC>MOL_PROPERTY
Bond
SciTegic.value.DoubleValue
0.212

@<SCITEGIC>MOL_PROPERTY
Angle
SciTegic.value.DoubleValue
0.867

@<SCITEGIC>MOL_PROPERTY
Pdih
SciTegic.value.DoubleValue
1.964

@<SCITEGIC>MOL_PROPERTY
Idih
SciTegic.value.DoubleValue
0.000

@<SCITEGIC>MOL_PROPERTY
Tether
SciTegic.value.DoubleValue
0.000

@<TRIPOS>MOLECULE
guest-s14_vm2.mol2 : vm2 ligand conformer 53
          26          25           1
SMALL
USER_CHARGES
 
@<TRIPOS>ATOM
       1    C1      19.457863   19.995861   20.203566 C.3        1 MOL1        -0.2400
       2    H1      18.988307   19.313297   19.483448 H          1 MOL1         0.0971
       3    H2      18.750333   20.171261   21.023528 H          1 MOL1         0.0971
       4    H3      19.622738   20.956244   19.698273 H          1 MOL1         0.0971
       5    C2      20.794899   19.420859   20.723144 C.3        1 MOL1        -0.1385
       6    H4      21.235251   20.110385   21.455712 H          1 MOL1         0.0960
       7    H5      21.508087   19.374711   19.888338 H          1 MOL1         0.0960
       8    C3      20.659987   18.003048   21.334938 C.3        1 MOL1        -0.1409
       9    H6      20.335034   17.307252   20.549187 H          1 MOL1         0.0960
      10    H7      21.654347   17.657438   21.649466 H          1 MOL1         0.0960
      11    C4      19.683962   17.888619   22.534417 C.3        1 MOL1        -0.1409
      12    H8      19.663353   16.840563   22.863595 H          1 MOL1         0.0960
      13    H9      18.661757   18.122475   22.208614 H          1 MOL1         0.0960
      14    C5      20.070334   18.785854   23.734512 C.3        1 MOL1        -0.1409
      15    H10     21.110487   18.579819   24.019713 H          1 MOL1         0.0960
      16    H11     20.020884   19.842892   23.441327 H          1 MOL1         0.0960
      17    C6      19.136173   18.554528   24.945692 C.3        1 MOL1        -0.1450
      18    H12     19.199933   17.509417   25.276783 H          1 MOL1         0.0960
      19    H13     18.095283   18.723256   24.639020 H          1 MOL1         0.0960
      20    C7      19.453522   19.488927   26.129087 C.3        1 MOL1         0.0172
      21    H14     19.396068   20.530446   25.801462 H          1 MOL1         0.0934
      22    H15     18.712411   19.338525   26.918826 H          1 MOL1         0.0934
      23    N1      20.824261   19.261305   26.735645 N.4        1 MOL1        -0.5956
      24    H16     20.999209   19.889418   27.527588 H          1 MOL1         0.3624
      25    H17     21.572375   19.422056   26.054189 H          1 MOL1         0.3624
      26    H18     20.931954   18.303154   27.084016 H          1 MOL1         0.3624
@<TRIPOS>BOND
    1     1     2    1
    2     1     3    1
    3     1     4    1
    4     1     5    1
    5     5     6    1
    6     5     7    1
    7     5     8    1
    8     8     9    1
    9     8    10    1
   10     8    11    1
   11    11    12    1
   12    11    13    1
   13    11    14    1
   14    14    15    1
   15    14    16    1
   16    14    17    1
   17    17    18    1
   18    17    19    1
   19    17    20    1
   20    20    21    1
   21    20    22    1
   22    20    23    1
   23    23    24    1
   24    23    25    1
   25    23    26    1
@<TRIPOS>SUBSTRUCTURE
       1 MOL1            1 RESIDUE      1      MOL     
@<SCITEGIC>MOL_PROPERTY
VM2 Rank
SciTegic.value.IntegerValue
53

@<SCITEGIC>MOL_PROPERTY
Conf_Id
SciTegic.value.IntegerValue
1305

@<SCITEGIC>MOL_PROPERTY
Probability
SciTegic.value.DoubleValue
0.54

@<SCITEGIC>MOL_PROPERTY
Sum Probability
SciTegic.value.DoubleValue
83.98

@<SCITEGIC>MOL_PROPERTY
Delta G
SciTegic.value.DoubleValue
1.550

@<SCITEGIC>MOL_PROPERTY
G
SciTegic.value.DoubleValue
49.811

@<SCITEGIC>MOL_PROPERTY
E
SciTegic.value.DoubleValue
16.923

@<SCITEGIC>MOL_PROPERTY
-TS
SciTegic.value.DoubleValue
32.887

@<SCITEGIC>MOL_PROPERTY
U+W
SciTegic.value.DoubleValue
-4.538

@<SCITEGIC>MOL_PROPERTY
U
SciTegic.value.DoubleValue
49.147

@<SCITEGIC>MOL_PROPERTY
W
SciTegic.value.DoubleValue
-53.686

@<SCITEGIC>MOL_PROPERTY
W(PB)
SciTegic.value.DoubleValue
-55.961

@<SCITEGIC>MOL_PROPERTY
W(SA)
SciTegic.value.DoubleValue
2.275

@<SCITEGIC>MOL_PROPERTY
Valence
SciTegic.value.DoubleValue
3.219

@<SCITEGIC>MOL_PROPERTY
Coulomb
SciTegic.value.DoubleValue
45.149

@<SCITEGIC>MOL_PROPERTY
VdW
SciTegic.value.DoubleValue
0.779

@<SCITEGIC>MOL_PROPERTY
VdW6
SciTegic.value.DoubleValue
-7.884

@<SCITEGIC>MOL_PROPERTY
VdW12
SciTegic.value.DoubleValue
8.664

@<SCITEGIC>MOL_PROPERTY
Bond
SciTegic.value.DoubleValue
0.228

@<SCITEGIC>MOL_PROPERTY
Angle
SciTegic.value.DoubleValue
1.077

@<SCITEGIC>MOL_PROPERTY
Pdih
SciTegic.value.DoubleValue
1.914

@<SCITEGIC>MOL_PROPERTY
Idih
SciTegic.value.DoubleValue
0.000

@<SCITEGIC>MOL_PROPERTY
Tether
SciTegic.value.DoubleValue
0.000

@<TRIPOS>MOLECULE
guest-s14_vm2.mol2 : vm2 ligand conformer 54
          26          25           1
SMALL
USER_CHARGES
 
@<TRIPOS>ATOM
       1    C1      19.129407   19.084190   19.579689 C.3        1 MOL1        -0.2400
       2    H1      18.993425   18.435025   18.704975 H          1 MOL1         0.0971
       3    H2      18.134458   19.371744   19.943846 H          1 MOL1         0.0971
       4    H3      19.647837   19.993090   19.247480 H          1 MOL1         0.0971
       5    C2      19.933600   18.357053   20.678179 C.3        1 MOL1        -0.1385
       6    H4      20.908862   18.051704   20.273818 H          1 MOL1         0.0960
       7    H5      19.407338   17.436186   20.966206 H          1 MOL1         0.0960
       8    C3      20.140233   19.249940   21.921641 C.3        1 MOL1        -0.1409
       9    H6      20.668407   20.168060   21.629635 H          1 MOL1         0.0960
      10    H7      19.159715   19.555100   22.310009 H          1 MOL1         0.0960
      11    C4      20.942351   18.520468   23.025729 C.3        1 MOL1        -0.1409
      12    H8      21.890138   18.161944   22.600910 H          1 MOL1         0.0960
      13    H9      20.396718   17.623598   23.347947 H          1 MOL1         0.0960
      14    C5      21.264231   19.415511   24.250365 C.3        1 MOL1        -0.1409
      15    H10     21.880430   18.842205   24.955951 H          1 MOL1         0.0960
      16    H11     21.891410   20.256722   23.924492 H          1 MOL1         0.0960
      17    C6      20.023369   19.976136   24.993806 C.3        1 MOL1        -0.1450
      18    H12     19.496706   20.689853   24.347533 H          1 MOL1         0.0960
      19    H13     20.356178   20.552734   25.867009 H          1 MOL1         0.0960
      20    C7      19.027392   18.893109   25.454655 C.3        1 MOL1         0.0172
      21    H14     18.170198   19.369398   25.938215 H          1 MOL1         0.0934
      22    H15     18.662407   18.335154   24.588397 H          1 MOL1         0.0934
      23    N1      19.620417   17.902593   26.436936 N.4        1 MOL1        -0.5956
      24    H16     20.417562   17.401759   26.032480 H          1 MOL1         0.3624
      25    H17     18.935384   17.196559   26.727344 H          1 MOL1         0.3624
      26    H18     19.953664   18.365333   27.288793 H          1 MOL1         0.3624
@<TRIPOS>BOND
    1     1     2    1
    2     1     3    1
    3     1     4    1
    4     1     5    1
    5     5     6    1
    6     5     7    1
    7     5     8    1
    8     8     9    1
    9     8    10    1
   10     8    11    1
   11    11    12    1
   12    11    13    1
   13    11    14    1
   14    14    15    1
   15    14    16    1
   16    14    17    1
   17    17    18    1
   18    17    19    1
   19    17    20    1
   20    20    21    1
   21    20    22    1
   22    20    23    1
   23    23    24    1
   24    23    25    1
   25    23    26    1
@<TRIPOS>SUBSTRUCTURE
       1 MOL1            1 RESIDUE      1      MOL     
@<SCITEGIC>MOL_PROPERTY
VM2 Rank
SciTegic.value.IntegerValue
54

@<SCITEGIC>MOL_PROPERTY
Conf_Id
SciTegic.value.IntegerValue
266

@<SCITEGIC>MOL_PROPERTY
Probability
SciTegic.value.DoubleValue
0.54

@<SCITEGIC>MOL_PROPERTY
Sum Probability
SciTegic.value.DoubleValue
84.51

@<SCITEGIC>MOL_PROPERTY
Delta G
SciTegic.value.DoubleValue
1.553

@<SCITEGIC>MOL_PROPERTY
G
SciTegic.value.DoubleValue
49.814

@<SCITEGIC>MOL_PROPERTY
E
SciTegic.value.DoubleValue
16.914

@<SCITEGIC>MOL_PROPERTY
-TS
SciTegic.value.DoubleValue
32.900

@<SCITEGIC>MOL_PROPERTY
U+W
SciTegic.value.DoubleValue
-4.548

@<SCITEGIC>MOL_PROPERTY
U
SciTegic.value.DoubleValue
49.197

@<SCITEGIC>MOL_PROPERTY
W
SciTegic.value.DoubleValue
-53.745

@<SCITEGIC>MOL_PROPERTY
W(PB)
SciTegic.value.DoubleValue
-56.033

@<SCITEGIC>MOL_PROPERTY
W(SA)
SciTegic.value.DoubleValue
2.288

@<SCITEGIC>MOL_PROPERTY
Valence
SciTegic.value.DoubleValue
3.018

@<SCITEGIC>MOL_PROPERTY
Coulomb
SciTegic.value.DoubleValue
45.589

@<SCITEGIC>MOL_PROPERTY
VdW
SciTegic.value.DoubleValue
0.590

@<SCITEGIC>MOL_PROPERTY
VdW6
SciTegic.value.DoubleValue
-8.073

@<SCITEGIC>MOL_PROPERTY
VdW12
SciTegic.value.DoubleValue
8.662

@<SCITEGIC>MOL_PROPERTY
Bond
SciTegic.value.DoubleValue
0.222

@<SCITEGIC>MOL_PROPERTY
Angle
SciTegic.value.DoubleValue
0.958

@<SCITEGIC>MOL_PROPERTY
Pdih
SciTegic.value.DoubleValue
1.839

@<SCITEGIC>MOL_PROPERTY
Idih
SciTegic.value.DoubleValue
0.000

@<SCITEGIC>MOL_PROPERTY
Tether
SciTegic.value.DoubleValue
0.000

@<TRIPOS>MOLECULE
guest-s14_vm2.mol2 : vm2 ligand conformer 55
          26          25           1
SMALL
USER_CHARGES
 
@<TRIPOS>ATOM
       1    C1      19.773314   17.595699   20.451607 C.3        1 MOL1        -0.2400
       2    H1      18.997513   16.960548   20.004894 H          1 MOL1         0.0971
       3    H2      20.616297   17.640566   19.749956 H          1 MOL1         0.0971
       4    H3      20.115629   17.102523   21.369910 H          1 MOL1         0.0971
       5    C2      19.216423   19.007867   20.741325 C.3        1 MOL1        -0.1385
       6    H4      18.388314   18.939803   21.459340 H          1 MOL1         0.0960
       7    H5      18.779514   19.411985   19.817489 H          1 MOL1         0.0960
       8    C3      20.290368   20.001192   21.253932 C.3        1 MOL1        -0.1409
       9    H6      21.041362   20.149023   20.465716 H          1 MOL1         0.0960
      10    H7      19.819989   20.982060   21.408133 H          1 MOL1         0.0960
      11    C4      21.015884   19.579701   22.557987 C.3        1 MOL1        -0.1409
      12    H8      21.758486   20.351247   22.803792 H          1 MOL1         0.0960
      13    H9      21.585490   18.656470   22.387825 H          1 MOL1         0.0960
      14    C5      20.063987   19.393312   23.763725 C.3        1 MOL1        -0.1409
      15    H10     19.466317   20.304676   23.903562 H          1 MOL1         0.0960
      16    H11     19.360981   18.577391   23.554333 H          1 MOL1         0.0960
      17    C6      20.841930   19.082204   25.064227 C.3        1 MOL1        -0.1450
      18    H12     21.566287   19.884977   25.255998 H          1 MOL1         0.0960
      19    H13     21.422917   18.158203   24.943200 H          1 MOL1         0.0960
      20    C7      19.920975   18.953832   26.292944 C.3        1 MOL1         0.0172
      21    H14     20.530848   18.821393   27.190757 H          1 MOL1         0.0934
      22    H15     19.334926   19.869263   26.410975 H          1 MOL1         0.0934
      23    N1      18.958120   17.785194   26.215252 N.4        1 MOL1        -0.5956
      24    H16     18.370069   17.720462   27.053312 H          1 MOL1         0.3624
      25    H17     19.451410   16.890933   26.125988 H          1 MOL1         0.3624
      26    H18     18.327449   17.865575   25.411746 H          1 MOL1         0.3624
@<TRIPOS>BOND
    1     1     2    1
    2     1     3    1
    3     1     4    1
    4     1     5    1
    5     5     6    1
    6     5     7    1
    7     5     8    1
    8     8     9    1
    9     8    10    1
   10     8    11    1
   11    11    12    1
   12    11    13    1
   13    11    14    1
   14    14    15    1
   15    14    16    1
   16    14    17    1
   17    17    18    1
   18    17    19    1
   19    17    20    1
   20    20    21    1
   21    20    22    1
   22    20    23    1
   23    23    24    1
   24    23    25    1
   25    23    26    1
@<TRIPOS>SUBSTRUCTURE
       1 MOL1            1 RESIDUE      1      MOL     
@<SCITEGIC>MOL_PROPERTY
VM2 Rank
SciTegic.value.IntegerValue
55

@<SCITEGIC>MOL_PROPERTY
Conf_Id
SciTegic.value.IntegerValue
667

@<SCITEGIC>MOL_PROPERTY
Probability
SciTegic.value.DoubleValue
0.52

@<SCITEGIC>MOL_PROPERTY
Sum Probability
SciTegic.value.DoubleValue
85.03

@<SCITEGIC>MOL_PROPERTY
Delta G
SciTegic.value.DoubleValue
1.576

@<SCITEGIC>MOL_PROPERTY
G
SciTegic.value.DoubleValue
49.837

@<SCITEGIC>MOL_PROPERTY
E
SciTegic.value.DoubleValue
16.947

@<SCITEGIC>MOL_PROPERTY
-TS
SciTegic.value.DoubleValue
32.890

@<SCITEGIC>MOL_PROPERTY
U+W
SciTegic.value.DoubleValue
-4.515

@<SCITEGIC>MOL_PROPERTY
U
SciTegic.value.DoubleValue
49.426

@<SCITEGIC>MOL_PROPERTY
W
SciTegic.value.DoubleValue
-53.941

@<SCITEGIC>MOL_PROPERTY
W(PB)
SciTegic.value.DoubleValue
-56.205

@<SCITEGIC>MOL_PROPERTY
W(SA)
SciTegic.value.DoubleValue
2.264

@<SCITEGIC>MOL_PROPERTY
Valence
SciTegic.value.DoubleValue
3.214

@<SCITEGIC>MOL_PROPERTY
Coulomb
SciTegic.value.DoubleValue
45.444

@<SCITEGIC>MOL_PROPERTY
VdW
SciTegic.value.DoubleValue
0.769

@<SCITEGIC>MOL_PROPERTY
VdW6
SciTegic.value.DoubleValue
-7.916

@<SCITEGIC>MOL_PROPERTY
VdW12
SciTegic.value.DoubleValue
8.684

@<SCITEGIC>MOL_PROPERTY
Bond
SciTegic.value.DoubleValue
0.230

@<SCITEGIC>MOL_PROPERTY
Angle
SciTegic.value.DoubleValue
1.078

@<SCITEGIC>MOL_PROPERTY
Pdih
SciTegic.value.DoubleValue
1.906

@<SCITEGIC>MOL_PROPERTY
Idih
SciTegic.value.DoubleValue
0.000

@<SCITEGIC>MOL_PROPERTY
Tether
SciTegic.value.DoubleValue
0.000

@<TRIPOS>MOLECULE
guest-s14_vm2.mol2 : vm2 ligand conformer 56
          26          25           1
SMALL
USER_CHARGES
 
@<TRIPOS>ATOM
       1    C1      21.018286   19.405007   19.760157 C.3        1 MOL1        -0.2400
       2    H1      21.214441   20.436093   20.081706 H          1 MOL1         0.0971
       3    H2      21.787587   18.756133   20.196870 H          1 MOL1         0.0971
       4    H3      21.133668   19.365758   18.669255 H          1 MOL1         0.0971
       5    C2      19.597574   18.955695   20.170445 C.3        1 MOL1        -0.1385
       6    H4      19.435559   17.913895   19.860375 H          1 MOL1         0.0960
       7    H5      18.861965   19.558219   19.619424 H          1 MOL1         0.0960
       8    C3      19.322787   19.099750   21.686750 C.3        1 MOL1        -0.1409
       9    H6      19.457101   20.150129   21.976375 H          1 MOL1         0.0960
      10    H7      18.267977   18.856816   21.875063 H          1 MOL1         0.0960
      11    C4      20.217917   18.185954   22.561629 C.3        1 MOL1        -0.1409
      12    H8      21.267560   18.498142   22.481182 H          1 MOL1         0.0960
      13    H9      20.168993   17.159755   22.172196 H          1 MOL1         0.0960
      14    C5      19.806711   18.163941   24.054442 C.3        1 MOL1        -0.1409
      15    H10     18.761903   17.835535   24.143567 H          1 MOL1         0.0960
      16    H11     20.413395   17.404319   24.564809 H          1 MOL1         0.0960
      17    C6      19.986831   19.529254   24.764424 C.3        1 MOL1        -0.1450
      18    H12     19.352655   20.284503   24.283846 H          1 MOL1         0.0960
      19    H13     21.023626   19.875102   24.658470 H          1 MOL1         0.0960
      20    C7      19.612772   19.475906   26.258387 C.3        1 MOL1         0.0172
      21    H14     19.666223   20.482910   26.681046 H          1 MOL1         0.0934
      22    H15     18.586844   19.114265   26.368354 H          1 MOL1         0.0934
      23    N1      20.518121   18.583492   27.084767 N.4        1 MOL1        -0.5956
      24    H16     21.496316   18.886935   27.039372 H          1 MOL1         0.3624
      25    H17     20.487380   17.610527   26.765001 H          1 MOL1         0.3624
      26    H18     20.250545   18.582419   28.075077 H          1 MOL1         0.3624
@<TRIPOS>BOND
    1     1     2    1
    2     1     3    1
    3     1     4    1
    4     1     5    1
    5     5     6    1
    6     5     7    1
    7     5     8    1
    8     8     9    1
    9     8    10    1
   10     8    11    1
   11    11    12    1
   12    11    13    1
   13    11    14    1
   14    14    15    1
   15    14    16    1
   16    14    17    1
   17    17    18    1
   18    17    19    1
   19    17    20    1
   20    20    21    1
   21    20    22    1
   22    20    23    1
   23    23    24    1
   24    23    25    1
   25    23    26    1
@<TRIPOS>SUBSTRUCTURE
       1 MOL1            1 RESIDUE      1      MOL     
@<SCITEGIC>MOL_PROPERTY
VM2 Rank
SciTegic.value.IntegerValue
56

@<SCITEGIC>MOL_PROPERTY
Conf_Id
SciTegic.value.IntegerValue
205

@<SCITEGIC>MOL_PROPERTY
Probability
SciTegic.value.DoubleValue
0.52

@<SCITEGIC>MOL_PROPERTY
Sum Probability
SciTegic.value.DoubleValue
85.55

@<SCITEGIC>MOL_PROPERTY
Delta G
SciTegic.value.DoubleValue
1.578

@<SCITEGIC>MOL_PROPERTY
G
SciTegic.value.DoubleValue
49.839

@<SCITEGIC>MOL_PROPERTY
E
SciTegic.value.DoubleValue
17.164

@<SCITEGIC>MOL_PROPERTY
-TS
SciTegic.value.DoubleValue
32.675

@<SCITEGIC>MOL_PROPERTY
U+W
SciTegic.value.DoubleValue
-4.298

@<SCITEGIC>MOL_PROPERTY
U
SciTegic.value.DoubleValue
49.153

@<SCITEGIC>MOL_PROPERTY
W
SciTegic.value.DoubleValue
-53.451

@<SCITEGIC>MOL_PROPERTY
W(PB)
SciTegic.value.DoubleValue
-55.735

@<SCITEGIC>MOL_PROPERTY
W(SA)
SciTegic.value.DoubleValue
2.284

@<SCITEGIC>MOL_PROPERTY
Valence
SciTegic.value.DoubleValue
3.298

@<SCITEGIC>MOL_PROPERTY
Coulomb
SciTegic.value.DoubleValue
44.906

@<SCITEGIC>MOL_PROPERTY
VdW
SciTegic.value.DoubleValue
0.948

@<SCITEGIC>MOL_PROPERTY
VdW6
SciTegic.value.DoubleValue
-7.574

@<SCITEGIC>MOL_PROPERTY
VdW12
SciTegic.value.DoubleValue
8.522

@<SCITEGIC>MOL_PROPERTY
Bond
SciTegic.value.DoubleValue
0.229

@<SCITEGIC>MOL_PROPERTY
Angle
SciTegic.value.DoubleValue
0.912

@<SCITEGIC>MOL_PROPERTY
Pdih
SciTegic.value.DoubleValue
2.157

@<SCITEGIC>MOL_PROPERTY
Idih
SciTegic.value.DoubleValue
0.000

@<SCITEGIC>MOL_PROPERTY
Tether
SciTegic.value.DoubleValue
0.000

@<TRIPOS>MOLECULE
guest-s14_vm2.mol2 : vm2 ligand conformer 57
          26          25           1
SMALL
USER_CHARGES
 
@<TRIPOS>ATOM
       1    C1      19.572719   19.376369   19.472669 C.3        1 MOL1        -0.2400
       2    H1      19.888057   20.389817   19.749565 H          1 MOL1         0.0971
       3    H2      19.808947   19.237338   18.409748 H          1 MOL1         0.0971
       4    H3      18.482692   19.311698   19.585222 H          1 MOL1         0.0971
       5    C2      20.284671   18.304407   20.328937 C.3        1 MOL1        -0.1385
       6    H4      21.373573   18.411972   20.226622 H          1 MOL1         0.0960
       7    H5      20.035330   17.311575   19.929035 H          1 MOL1         0.0960
       8    C3      19.892304   18.347856   21.825789 C.3        1 MOL1        -0.1409
       9    H6      18.803572   18.236918   21.922569 H          1 MOL1         0.0960
      10    H7      20.337993   17.474042   22.317967 H          1 MOL1         0.0960
      11    C4      20.353101   19.640192   22.546909 C.3        1 MOL1        -0.1409
      12    H8      19.908802   20.512912   22.051319 H          1 MOL1         0.0960
      13    H9      21.441887   19.750931   22.450485 H          1 MOL1         0.0960
      14    C5      19.956896   19.687503   24.043270 C.3        1 MOL1        -0.1409
      15    H10     20.205356   20.683034   24.436705 H          1 MOL1         0.0960
      16    H11     18.867425   19.582311   24.133189 H          1 MOL1         0.0960
      17    C6      20.668381   18.616126   24.907099 C.3        1 MOL1        -0.1450
      18    H12     21.751579   18.670160   24.735278 H          1 MOL1         0.0960
      19    H13     20.351604   17.608751   24.609455 H          1 MOL1         0.0960
      20    C7      20.403865   18.801086   26.413686 C.3        1 MOL1         0.0172
      21    H14     20.989034   18.069576   26.977619 H          1 MOL1         0.0934
      22    H15     20.719190   19.801312   26.722735 H          1 MOL1         0.0934
      23    N1      18.949063   18.625460   26.802641 N.4        1 MOL1        -0.5956
      24    H16     18.807757   18.744138   27.811722 H          1 MOL1         0.3624
      25    H17     18.599639   17.693024   26.558903 H          1 MOL1         0.3624
      26    H18     18.345871   19.307713   26.332906 H          1 MOL1         0.3624
@<TRIPOS>BOND
    1     1     2    1
    2     1     3    1
    3     1     4    1
    4     1     5    1
    5     5     6    1
    6     5     7    1
    7     5     8    1
    8     8     9    1
    9     8    10    1
   10     8    11    1
   11    11    12    1
   12    11    13    1
   13    11    14    1
   14    14    15    1
   15    14    16    1
   16    14    17    1
   17    17    18    1
   18    17    19    1
   19    17    20    1
   20    20    21    1
   21    20    22    1
   22    20    23    1
   23    23    24    1
   24    23    25    1
   25    23    26    1
@<TRIPOS>SUBSTRUCTURE
       1 MOL1            1 RESIDUE      1      MOL     
@<SCITEGIC>MOL_PROPERTY
VM2 Rank
SciTegic.value.IntegerValue
57

@<SCITEGIC>MOL_PROPERTY
Conf_Id
SciTegic.value.IntegerValue
1312

@<SCITEGIC>MOL_PROPERTY
Probability
SciTegic.value.DoubleValue
0.50

@<SCITEGIC>MOL_PROPERTY
Sum Probability
SciTegic.value.DoubleValue
86.05

@<SCITEGIC>MOL_PROPERTY
Delta G
SciTegic.value.DoubleValue
1.598

@<SCITEGIC>MOL_PROPERTY
G
SciTegic.value.DoubleValue
49.859

@<SCITEGIC>MOL_PROPERTY
E
SciTegic.value.DoubleValue
17.234

@<SCITEGIC>MOL_PROPERTY
-TS
SciTegic.value.DoubleValue
32.626

@<SCITEGIC>MOL_PROPERTY
U+W
SciTegic.value.DoubleValue
-4.228

@<SCITEGIC>MOL_PROPERTY
U
SciTegic.value.DoubleValue
49.401

@<SCITEGIC>MOL_PROPERTY
W
SciTegic.value.DoubleValue
-53.629

@<SCITEGIC>MOL_PROPERTY
W(PB)
SciTegic.value.DoubleValue
-55.918

@<SCITEGIC>MOL_PROPERTY
W(SA)
SciTegic.value.DoubleValue
2.289

@<SCITEGIC>MOL_PROPERTY
Valence
SciTegic.value.DoubleValue
3.370

@<SCITEGIC>MOL_PROPERTY
Coulomb
SciTegic.value.DoubleValue
45.066

@<SCITEGIC>MOL_PROPERTY
VdW
SciTegic.value.DoubleValue
0.965

@<SCITEGIC>MOL_PROPERTY
VdW6
SciTegic.value.DoubleValue
-7.528

@<SCITEGIC>MOL_PROPERTY
VdW12
SciTegic.value.DoubleValue
8.494

@<SCITEGIC>MOL_PROPERTY
Bond
SciTegic.value.DoubleValue
0.232

@<SCITEGIC>MOL_PROPERTY
Angle
SciTegic.value.DoubleValue
0.963

@<SCITEGIC>MOL_PROPERTY
Pdih
SciTegic.value.DoubleValue
2.174

@<SCITEGIC>MOL_PROPERTY
Idih
SciTegic.value.DoubleValue
0.000

@<SCITEGIC>MOL_PROPERTY
Tether
SciTegic.value.DoubleValue
0.000

@<TRIPOS>MOLECULE
guest-s14_vm2.mol2 : vm2 ligand conformer 58
          26          25           1
SMALL
USER_CHARGES
 
@<TRIPOS>ATOM
       1    C1      19.337522   18.296370   19.704196 C.3        1 MOL1        -0.2400
       2    H1      18.298504   18.512770   19.984589 H          1 MOL1         0.0971
       3    H2      19.378892   18.208294   18.610829 H          1 MOL1         0.0971
       4    H3      19.611229   17.320618   20.124400 H          1 MOL1         0.0971
       5    C2      20.288985   19.411686   20.193515 C.3        1 MOL1        -0.1385
       6    H4      20.049934   20.341713   19.659018 H          1 MOL1         0.0960
       7    H5      21.323911   19.159346   19.923345 H          1 MOL1         0.0960
       8    C3      20.194169   19.674490   21.715810 C.3        1 MOL1        -0.1409
       9    H6      20.822685   20.541866   21.960206 H          1 MOL1         0.0960
      10    H7      19.163181   19.956261   21.966584 H          1 MOL1         0.0960
      11    C4      20.641500   18.465356   22.575799 C.3        1 MOL1        -0.1409
      12    H8      21.621479   18.117870   22.220791 H          1 MOL1         0.0960
      13    H9      19.946510   17.626650   22.437076 H          1 MOL1         0.0960
      14    C5      20.753596   18.788651   24.086090 C.3        1 MOL1        -0.1409
      15    H10     21.189551   17.916420   24.590791 H          1 MOL1         0.0960
      16    H11     21.461130   19.616301   24.233766 H          1 MOL1         0.0960
      17    C6      19.395668   19.139319   24.744622 C.3        1 MOL1        -0.1450
      18    H12     18.676010   18.326465   24.579874 H          1 MOL1         0.0960
      19    H13     18.973189   20.034234   24.271151 H          1 MOL1         0.0960
      20    C7      19.521858   19.415930   26.255335 C.3        1 MOL1         0.0172
      21    H14     20.251612   20.212413   26.424095 H          1 MOL1         0.0934
      22    H15     18.556178   19.750663   26.643883 H          1 MOL1         0.0934
      23    N1      19.947702   18.207198   27.065634 N.4        1 MOL1        -0.5956
      24    H16     20.007505   18.422068   28.066916 H          1 MOL1         0.3624
      25    H17     20.868422   17.861875   26.777740 H          1 MOL1         0.3624
      26    H18     19.287147   17.429632   26.965316 H          1 MOL1         0.3624
@<TRIPOS>BOND
    1     1     2    1
    2     1     3    1
    3     1     4    1
    4     1     5    1
    5     5     6    1
    6     5     7    1
    7     5     8    1
    8     8     9    1
    9     8    10    1
   10     8    11    1
   11    11    12    1
   12    11    13    1
   13    11    14    1
   14    14    15    1
   15    14    16    1
   16    14    17    1
   17    17    18    1
   18    17    19    1
   19    17    20    1
   20    20    21    1
   21    20    22    1
   22    20    23    1
   23    23    24    1
   24    23    25    1
   25    23    26    1
@<TRIPOS>SUBSTRUCTURE
       1 MOL1            1 RESIDUE      1      MOL     
@<SCITEGIC>MOL_PROPERTY
VM2 Rank
SciTegic.value.IntegerValue
58

@<SCITEGIC>MOL_PROPERTY
Conf_Id
SciTegic.value.IntegerValue
713

@<SCITEGIC>MOL_PROPERTY
Probability
SciTegic.value.DoubleValue
0.50

@<SCITEGIC>MOL_PROPERTY
Sum Probability
SciTegic.value.DoubleValue
86.54

@<SCITEGIC>MOL_PROPERTY
Delta G
SciTegic.value.DoubleValue
1.603

@<SCITEGIC>MOL_PROPERTY
G
SciTegic.value.DoubleValue
49.864

@<SCITEGIC>MOL_PROPERTY
E
SciTegic.value.DoubleValue
17.189

@<SCITEGIC>MOL_PROPERTY
-TS
SciTegic.value.DoubleValue
32.675

@<SCITEGIC>MOL_PROPERTY
U+W
SciTegic.value.DoubleValue
-4.273

@<SCITEGIC>MOL_PROPERTY
U
SciTegic.value.DoubleValue
49.153

@<SCITEGIC>MOL_PROPERTY
W
SciTegic.value.DoubleValue
-53.426

@<SCITEGIC>MOL_PROPERTY
W(PB)
SciTegic.value.DoubleValue
-55.726

@<SCITEGIC>MOL_PROPERTY
W(SA)
SciTegic.value.DoubleValue
2.300

@<SCITEGIC>MOL_PROPERTY
Valence
SciTegic.value.DoubleValue
3.298

@<SCITEGIC>MOL_PROPERTY
Coulomb
SciTegic.value.DoubleValue
44.906

@<SCITEGIC>MOL_PROPERTY
VdW
SciTegic.value.DoubleValue
0.948

@<SCITEGIC>MOL_PROPERTY
VdW6
SciTegic.value.DoubleValue
-7.574

@<SCITEGIC>MOL_PROPERTY
VdW12
SciTegic.value.DoubleValue
8.522

@<SCITEGIC>MOL_PROPERTY
Bond
SciTegic.value.DoubleValue
0.229

@<SCITEGIC>MOL_PROPERTY
Angle
SciTegic.value.DoubleValue
0.912

@<SCITEGIC>MOL_PROPERTY
Pdih
SciTegic.value.DoubleValue
2.157

@<SCITEGIC>MOL_PROPERTY
Idih
SciTegic.value.DoubleValue
0.000

@<SCITEGIC>MOL_PROPERTY
Tether
SciTegic.value.DoubleValue
0.000

@<TRIPOS>MOLECULE
guest-s14_vm2.mol2 : vm2 ligand conformer 59
          26          25           1
SMALL
USER_CHARGES
 
@<TRIPOS>ATOM
       1    C1      19.602428   20.006600   19.741701 C.3        1 MOL1        -0.2400
       2    H1      18.548135   20.200191   19.978747 H          1 MOL1         0.0971
       3    H2      20.042176   20.942121   19.372329 H          1 MOL1         0.0971
       4    H3      19.640480   19.271922   18.926835 H          1 MOL1         0.0971
       5    C2      20.365577   19.498770   20.983377 C.3        1 MOL1        -0.1385
       6    H4      20.339220   20.275060   21.759641 H          1 MOL1         0.0960
       7    H5      21.421904   19.342529   20.723752 H          1 MOL1         0.0960
       8    C3      19.760961   18.182220   21.525414 C.3        1 MOL1        -0.1409
       9    H6      18.717401   18.347565   21.823813 H          1 MOL1         0.0960
      10    H7      19.726807   17.444517   20.711868 H          1 MOL1         0.0960
      11    C4      20.560948   17.569398   22.704189 C.3        1 MOL1        -0.1409
      12    H8      21.562599   17.293099   22.347017 H          1 MOL1         0.0960
      13    H9      20.080091   16.628286   23.004651 H          1 MOL1         0.0960
      14    C5      20.711925   18.477006   23.952670 C.3        1 MOL1        -0.1409
      15    H10     21.306681   17.931686   24.697209 H          1 MOL1         0.0960
      16    H11     21.295268   19.371837   23.698258 H          1 MOL1         0.0960
      17    C6      19.359304   18.895510   24.581515 C.3        1 MOL1        -0.1450
      18    H12     18.763164   18.004797   24.820160 H          1 MOL1         0.0960
      19    H13     18.778114   19.478631   23.856273 H          1 MOL1         0.0960
      20    C7      19.533593   19.753420   25.849608 C.3        1 MOL1         0.0172
      21    H14     20.142949   20.631491   25.619243 H          1 MOL1         0.0934
      22    H15     18.553703   20.098566   26.190546 H          1 MOL1         0.0934
      23    N1      20.186263   19.016075   27.002526 N.4        1 MOL1        -0.5956
      24    H16     20.273505   19.610554   27.833953 H          1 MOL1         0.3624
      25    H17     21.129421   18.695176   26.763153 H          1 MOL1         0.3624
      26    H18     19.646349   18.190096   27.280455 H          1 MOL1         0.3624
@<TRIPOS>BOND
    1     1     2    1
    2     1     3    1
    3     1     4    1
    4     1     5    1
    5     5     6    1
    6     5     7    1
    7     5     8    1
    8     8     9    1
    9     8    10    1
   10     8    11    1
   11    11    12    1
   12    11    13    1
   13    11    14    1
   14    14    15    1
   15    14    16    1
   16    14    17    1
   17    17    18    1
   18    17    19    1
   19    17    20    1
   20    20    21    1
   21    20    22    1
   22    20    23    1
   23    23    24    1
   24    23    25    1
   25    23    26    1
@<TRIPOS>SUBSTRUCTURE
       1 MOL1            1 RESIDUE      1      MOL     
@<SCITEGIC>MOL_PROPERTY
VM2 Rank
SciTegic.value.IntegerValue
59

@<SCITEGIC>MOL_PROPERTY
Conf_Id
SciTegic.value.IntegerValue
428

@<SCITEGIC>MOL_PROPERTY
Probability
SciTegic.value.DoubleValue
0.49

@<SCITEGIC>MOL_PROPERTY
Sum Probability
SciTegic.value.DoubleValue
87.03

@<SCITEGIC>MOL_PROPERTY
Delta G
SciTegic.value.DoubleValue
1.612

@<SCITEGIC>MOL_PROPERTY
G
SciTegic.value.DoubleValue
49.873

@<SCITEGIC>MOL_PROPERTY
E
SciTegic.value.DoubleValue
16.983

@<SCITEGIC>MOL_PROPERTY
-TS
SciTegic.value.DoubleValue
32.890

@<SCITEGIC>MOL_PROPERTY
U+W
SciTegic.value.DoubleValue
-4.479

@<SCITEGIC>MOL_PROPERTY
U
SciTegic.value.DoubleValue
49.231

@<SCITEGIC>MOL_PROPERTY
W
SciTegic.value.DoubleValue
-53.710

@<SCITEGIC>MOL_PROPERTY
W(PB)
SciTegic.value.DoubleValue
-55.983

@<SCITEGIC>MOL_PROPERTY
W(SA)
SciTegic.value.DoubleValue
2.273

@<SCITEGIC>MOL_PROPERTY
Valence
SciTegic.value.DoubleValue
3.276

@<SCITEGIC>MOL_PROPERTY
Coulomb
SciTegic.value.DoubleValue
45.175

@<SCITEGIC>MOL_PROPERTY
VdW
SciTegic.value.DoubleValue
0.779

@<SCITEGIC>MOL_PROPERTY
VdW6
SciTegic.value.DoubleValue
-7.944

@<SCITEGIC>MOL_PROPERTY
VdW12
SciTegic.value.DoubleValue
8.723

@<SCITEGIC>MOL_PROPERTY
Bond
SciTegic.value.DoubleValue
0.239

@<SCITEGIC>MOL_PROPERTY
Angle
SciTegic.value.DoubleValue
1.155

@<SCITEGIC>MOL_PROPERTY
Pdih
SciTegic.value.DoubleValue
1.882

@<SCITEGIC>MOL_PROPERTY
Idih
SciTegic.value.DoubleValue
0.000

@<SCITEGIC>MOL_PROPERTY
Tether
SciTegic.value.DoubleValue
0.000

@<TRIPOS>MOLECULE
guest-s14_vm2.mol2 : vm2 ligand conformer 60
          26          25           1
SMALL
USER_CHARGES
 
@<TRIPOS>ATOM
       1    C1      20.645892   20.369959   20.510273 C.3        1 MOL1        -0.2400
       2    H1      21.462073   20.690572   21.170627 H          1 MOL1         0.0971
       3    H2      20.865814   20.740232   19.500597 H          1 MOL1         0.0971
       4    H3      19.721057   20.855645   20.845354 H          1 MOL1         0.0971
       5    C2      20.508358   18.830542   20.503715 C.3        1 MOL1        -0.1385
       6    H4      21.410518   18.395985   20.050911 H          1 MOL1         0.0960
       7    H5      19.668646   18.536957   19.858411 H          1 MOL1         0.0960
       8    C3      20.320546   18.225970   21.915881 C.3        1 MOL1        -0.1409
       9    H6      20.338661   17.130575   21.832996 H          1 MOL1         0.0960
      10    H7      21.178357   18.505150   22.541777 H          1 MOL1         0.0960
      11    C4      18.999069   18.660162   22.598564 C.3        1 MOL1        -0.1409
      12    H8      18.163207   18.475660   21.909826 H          1 MOL1         0.0960
      13    H9      19.007540   19.741983   22.782822 H          1 MOL1         0.0960
      14    C5      18.714778   17.909351   23.925116 C.3        1 MOL1        -0.1409
      15    H10     17.747877   18.248641   24.321867 H          1 MOL1         0.0960
      16    H11     18.595265   16.837658   23.714374 H          1 MOL1         0.0960
      17    C6      19.796720   18.089209   25.019021 C.3        1 MOL1        -0.1450
      18    H12     20.739964   17.632398   24.693340 H          1 MOL1         0.0960
      19    H13     19.484817   17.542238   25.918661 H          1 MOL1         0.0960
      20    C7      20.034509   19.566209   25.384595 C.3        1 MOL1         0.0172
      21    H14     20.384959   20.111992   24.504620 H          1 MOL1         0.0934
      22    H15     19.096926   20.017804   25.719761 H          1 MOL1         0.0934
      23    N1      21.061128   19.747598   26.483834 N.4        1 MOL1        -0.5956
      24    H16     21.975440   19.366446   26.219667 H          1 MOL1         0.3624
      25    H17     20.778308   19.279933   27.351276 H          1 MOL1         0.3624
      26    H18     21.204461   20.737477   26.711644 H          1 MOL1         0.3624
@<TRIPOS>BOND
    1     1     2    1
    2     1     3    1
    3     1     4    1
    4     1     5    1
    5     5     6    1
    6     5     7    1
    7     5     8    1
    8     8     9    1
    9     8    10    1
   10     8    11    1
   11    11    12    1
   12    11    13    1
   13    11    14    1
   14    14    15    1
   15    14    16    1
   16    14    17    1
   17    17    18    1
   18    17    19    1
   19    17    20    1
   20    20    21    1
   21    20    22    1
   22    20    23    1
   23    23    24    1
   24    23    25    1
   25    23    26    1
@<TRIPOS>SUBSTRUCTURE
       1 MOL1            1 RESIDUE      1      MOL     
@<SCITEGIC>MOL_PROPERTY
VM2 Rank
SciTegic.value.IntegerValue
60

@<SCITEGIC>MOL_PROPERTY
Conf_Id
SciTegic.value.IntegerValue
174

@<SCITEGIC>MOL_PROPERTY
Probability
SciTegic.value.DoubleValue
0.47

@<SCITEGIC>MOL_PROPERTY
Sum Probability
SciTegic.value.DoubleValue
87.50

@<SCITEGIC>MOL_PROPERTY
Delta G
SciTegic.value.DoubleValue
1.634

@<SCITEGIC>MOL_PROPERTY
G
SciTegic.value.DoubleValue
49.895

@<SCITEGIC>MOL_PROPERTY
E
SciTegic.value.DoubleValue
17.074

@<SCITEGIC>MOL_PROPERTY
-TS
SciTegic.value.DoubleValue
32.821

@<SCITEGIC>MOL_PROPERTY
U+W
SciTegic.value.DoubleValue
-4.387

@<SCITEGIC>MOL_PROPERTY
U
SciTegic.value.DoubleValue
49.567

@<SCITEGIC>MOL_PROPERTY
W
SciTegic.value.DoubleValue
-53.954

@<SCITEGIC>MOL_PROPERTY
W(PB)
SciTegic.value.DoubleValue
-56.239

@<SCITEGIC>MOL_PROPERTY
W(SA)
SciTegic.value.DoubleValue
2.285

@<SCITEGIC>MOL_PROPERTY
Valence
SciTegic.value.DoubleValue
3.380

@<SCITEGIC>MOL_PROPERTY
Coulomb
SciTegic.value.DoubleValue
45.516

@<SCITEGIC>MOL_PROPERTY
VdW
SciTegic.value.DoubleValue
0.670

@<SCITEGIC>MOL_PROPERTY
VdW6
SciTegic.value.DoubleValue
-8.071

@<SCITEGIC>MOL_PROPERTY
VdW12
SciTegic.value.DoubleValue
8.741

@<SCITEGIC>MOL_PROPERTY
Bond
SciTegic.value.DoubleValue
0.231

@<SCITEGIC>MOL_PROPERTY
Angle
SciTegic.value.DoubleValue
1.069

@<SCITEGIC>MOL_PROPERTY
Pdih
SciTegic.value.DoubleValue
2.080

@<SCITEGIC>MOL_PROPERTY
Idih
SciTegic.value.DoubleValue
0.000

@<SCITEGIC>MOL_PROPERTY
Tether
SciTegic.value.DoubleValue
0.000

@<TRIPOS>MOLECULE
guest-s14_vm2.mol2 : vm2 ligand conformer 61
          26          25           1
SMALL
USER_CHARGES
 
@<TRIPOS>ATOM
       1    C1      20.478674   19.512811   19.447631 C.3        1 MOL1        -0.2400
       2    H1      21.464139   19.757845   19.862339 H          1 MOL1         0.0971
       3    H2      20.627885   19.207311   18.403915 H          1 MOL1         0.0971
       4    H3      19.868743   20.425495   19.445971 H          1 MOL1         0.0971
       5    C2      19.788585   18.384323   20.247328 C.3        1 MOL1        -0.1385
       6    H4      20.433413   17.494565   20.263978 H          1 MOL1         0.0960
       7    H5      18.871281   18.088787   19.719095 H          1 MOL1         0.0960
       8    C3      19.417414   18.789527   21.694596 C.3        1 MOL1        -0.1409
       9    H6      18.771663   19.678076   21.672030 H          1 MOL1         0.0960
      10    H7      18.816337   17.980291   22.128112 H          1 MOL1         0.0960
      11    C4      20.650135   19.060795   22.594441 C.3        1 MOL1        -0.1409
      12    H8      21.252301   19.865349   22.153182 H          1 MOL1         0.0960
      13    H9      21.294373   18.171232   22.620135 H          1 MOL1         0.0960
      14    C5      20.283883   19.478376   24.040300 C.3        1 MOL1        -0.1409
      15    H10     21.205280   19.795609   24.546211 H          1 MOL1         0.0960
      16    H11     19.627733   20.359397   24.013806 H          1 MOL1         0.0960
      17    C6      19.611250   18.349861   24.862066 C.3        1 MOL1        -0.1450
      18    H12     20.249234   17.456155   24.867569 H          1 MOL1         0.0960
      19    H13     18.665022   18.058049   24.390369 H          1 MOL1         0.0960
      20    C7      19.306502   18.772310   26.312415 C.3        1 MOL1         0.0172
      21    H14     18.688160   19.674008   26.311082 H          1 MOL1         0.0934
      22    H15     18.746950   17.976243   26.811149 H          1 MOL1         0.0934
      23    N1      20.544555   19.050997   27.142223 N.4        1 MOL1        -0.5956
      24    H16     21.100102   19.817628   26.750438 H          1 MOL1         0.3624
      25    H17     21.157120   18.230928   27.199386 H          1 MOL1         0.3624
      26    H18     20.306337   19.314490   28.104586 H          1 MOL1         0.3624
@<TRIPOS>BOND
    1     1     2    1
    2     1     3    1
    3     1     4    1
    4     1     5    1
    5     5     6    1
    6     5     7    1
    7     5     8    1
    8     8     9    1
    9     8    10    1
   10     8    11    1
   11    11    12    1
   12    11    13    1
   13    11    14    1
   14    14    15    1
   15    14    16    1
   16    14    17    1
   17    17    18    1
   18    17    19    1
   19    17    20    1
   20    20    21    1
   21    20    22    1
   22    20    23    1
   23    23    24    1
   24    23    25    1
   25    23    26    1
@<TRIPOS>SUBSTRUCTURE
       1 MOL1            1 RESIDUE      1      MOL     
@<SCITEGIC>MOL_PROPERTY
VM2 Rank
SciTegic.value.IntegerValue
61

@<SCITEGIC>MOL_PROPERTY
Conf_Id
SciTegic.value.IntegerValue
803

@<SCITEGIC>MOL_PROPERTY
Probability
SciTegic.value.DoubleValue
0.47

@<SCITEGIC>MOL_PROPERTY
Sum Probability
SciTegic.value.DoubleValue
87.97

@<SCITEGIC>MOL_PROPERTY
Delta G
SciTegic.value.DoubleValue
1.635

@<SCITEGIC>MOL_PROPERTY
G
SciTegic.value.DoubleValue
49.896

@<SCITEGIC>MOL_PROPERTY
E
SciTegic.value.DoubleValue
17.316

@<SCITEGIC>MOL_PROPERTY
-TS
SciTegic.value.DoubleValue
32.579

@<SCITEGIC>MOL_PROPERTY
U+W
SciTegic.value.DoubleValue
-4.146

@<SCITEGIC>MOL_PROPERTY
U
SciTegic.value.DoubleValue
49.323

@<SCITEGIC>MOL_PROPERTY
W
SciTegic.value.DoubleValue
-53.468

@<SCITEGIC>MOL_PROPERTY
W(PB)
SciTegic.value.DoubleValue
-55.770

@<SCITEGIC>MOL_PROPERTY
W(SA)
SciTegic.value.DoubleValue
2.301

@<SCITEGIC>MOL_PROPERTY
Valence
SciTegic.value.DoubleValue
3.408

@<SCITEGIC>MOL_PROPERTY
Coulomb
SciTegic.value.DoubleValue
44.893

@<SCITEGIC>MOL_PROPERTY
VdW
SciTegic.value.DoubleValue
1.022

@<SCITEGIC>MOL_PROPERTY
VdW6
SciTegic.value.DoubleValue
-7.482

@<SCITEGIC>MOL_PROPERTY
VdW12
SciTegic.value.DoubleValue
8.503

@<SCITEGIC>MOL_PROPERTY
Bond
SciTegic.value.DoubleValue
0.238

@<SCITEGIC>MOL_PROPERTY
Angle
SciTegic.value.DoubleValue
1.013

@<SCITEGIC>MOL_PROPERTY
Pdih
SciTegic.value.DoubleValue
2.156

@<SCITEGIC>MOL_PROPERTY
Idih
SciTegic.value.DoubleValue
0.000

@<SCITEGIC>MOL_PROPERTY
Tether
SciTegic.value.DoubleValue
0.000

@<TRIPOS>MOLECULE
guest-s14_vm2.mol2 : vm2 ligand conformer 62
          26          25           1
SMALL
USER_CHARGES
 
@<TRIPOS>ATOM
       1    C1      19.576612   19.170637   19.268407 C.3        1 MOL1        -0.2400
       2    H1      20.210451   19.991718   18.908831 H          1 MOL1         0.0971
       3    H2      19.600867   18.372158   18.515492 H          1 MOL1         0.0971
       4    H3      18.544733   19.539344   19.335627 H          1 MOL1         0.0971
       5    C2      20.068147   18.646634   20.634478 C.3        1 MOL1        -0.1385
       6    H4      21.090837   18.258508   20.528845 H          1 MOL1         0.0960
       7    H5      19.436346   17.801972   20.939102 H          1 MOL1         0.0960
       8    C3      20.038523   19.754587   21.713898 C.3        1 MOL1        -0.1409
       9    H6      20.607803   20.620905   21.349514 H          1 MOL1         0.0960
      10    H7      19.006814   20.103487   21.858885 H          1 MOL1         0.0960
      11    C4      20.634642   19.314976   23.073922 C.3        1 MOL1        -0.1409
      12    H8      20.694881   20.200670   23.719854 H          1 MOL1         0.0960
      13    H9      21.667219   18.969233   22.927587 H          1 MOL1         0.0960
      14    C5      19.809404   18.211665   23.783928 C.3        1 MOL1        -0.1409
      15    H10     18.769740   18.544158   23.903716 H          1 MOL1         0.0960
      16    H11     19.772792   17.315154   23.151853 H          1 MOL1         0.0960
      17    C6      20.394443   17.803385   25.159576 C.3        1 MOL1        -0.1450
      18    H12     21.406776   17.402320   25.017473 H          1 MOL1         0.0960
      19    H13     19.796625   16.982729   25.577853 H          1 MOL1         0.0960
      20    C7      20.457112   18.952878   26.186032 C.3        1 MOL1         0.0172
      21    H14     20.898300   18.584566   27.116192 H          1 MOL1         0.0934
      22    H15     21.092760   19.756080   25.804862 H          1 MOL1         0.0934
      23    N1      19.102118   19.544239   26.520760 N.4        1 MOL1        -0.5956
      24    H16     18.466492   18.841367   26.911713 H          1 MOL1         0.3624
      25    H17     18.646829   19.937349   25.691194 H          1 MOL1         0.3624
      26    H18     19.175676   20.299329   27.211124 H          1 MOL1         0.3624
@<TRIPOS>BOND
    1     1     2    1
    2     1     3    1
    3     1     4    1
    4     1     5    1
    5     5     6    1
    6     5     7    1
    7     5     8    1
    8     8     9    1
    9     8    10    1
   10     8    11    1
   11    11    12    1
   12    11    13    1
   13    11    14    1
   14    14    15    1
   15    14    16    1
   16    14    17    1
   17    17    18    1
   18    17    19    1
   19    17    20    1
   20    20    21    1
   21    20    22    1
   22    20    23    1
   23    23    24    1
   24    23    25    1
   25    23    26    1
@<TRIPOS>SUBSTRUCTURE
       1 MOL1            1 RESIDUE      1      MOL     
@<SCITEGIC>MOL_PROPERTY
VM2 Rank
SciTegic.value.IntegerValue
62

@<SCITEGIC>MOL_PROPERTY
Conf_Id
SciTegic.value.IntegerValue
1516

@<SCITEGIC>MOL_PROPERTY
Probability
SciTegic.value.DoubleValue
0.46

@<SCITEGIC>MOL_PROPERTY
Sum Probability
SciTegic.value.DoubleValue
88.43

@<SCITEGIC>MOL_PROPERTY
Delta G
SciTegic.value.DoubleValue
1.645

@<SCITEGIC>MOL_PROPERTY
G
SciTegic.value.DoubleValue
49.906

@<SCITEGIC>MOL_PROPERTY
E
SciTegic.value.DoubleValue
17.198

@<SCITEGIC>MOL_PROPERTY
-TS
SciTegic.value.DoubleValue
32.708

@<SCITEGIC>MOL_PROPERTY
U+W
SciTegic.value.DoubleValue
-4.264

@<SCITEGIC>MOL_PROPERTY
U
SciTegic.value.DoubleValue
49.425

@<SCITEGIC>MOL_PROPERTY
W
SciTegic.value.DoubleValue
-53.688

@<SCITEGIC>MOL_PROPERTY
W(PB)
SciTegic.value.DoubleValue
-55.973

@<SCITEGIC>MOL_PROPERTY
W(SA)
SciTegic.value.DoubleValue
2.285

@<SCITEGIC>MOL_PROPERTY
Valence
SciTegic.value.DoubleValue
3.135

@<SCITEGIC>MOL_PROPERTY
Coulomb
SciTegic.value.DoubleValue
45.468

@<SCITEGIC>MOL_PROPERTY
VdW
SciTegic.value.DoubleValue
0.822

@<SCITEGIC>MOL_PROPERTY
VdW6
SciTegic.value.DoubleValue
-7.705

@<SCITEGIC>MOL_PROPERTY
VdW12
SciTegic.value.DoubleValue
8.527

@<SCITEGIC>MOL_PROPERTY
Bond
SciTegic.value.DoubleValue
0.222

@<SCITEGIC>MOL_PROPERTY
Angle
SciTegic.value.DoubleValue
0.941

@<SCITEGIC>MOL_PROPERTY
Pdih
SciTegic.value.DoubleValue
1.972

@<SCITEGIC>MOL_PROPERTY
Idih
SciTegic.value.DoubleValue
0.000

@<SCITEGIC>MOL_PROPERTY
Tether
SciTegic.value.DoubleValue
0.000

@<TRIPOS>MOLECULE
guest-s14_vm2.mol2 : vm2 ligand conformer 63
          26          25           1
SMALL
USER_CHARGES
 
@<TRIPOS>ATOM
       1    C1      19.464865   18.844763   19.413718 C.3        1 MOL1        -0.2400
       2    H1      18.866422   19.765022   19.412470 H          1 MOL1         0.0971
       3    H2      19.735348   18.619256   18.374043 H          1 MOL1         0.0971
       4    H3      18.833296   18.023669   19.774397 H          1 MOL1         0.0971
       5    C2      20.735224   19.008794   20.278883 C.3        1 MOL1        -0.1385
       6    H4      21.391552   19.751018   19.803323 H          1 MOL1         0.0960
       7    H5      21.298326   18.065144   20.292603 H          1 MOL1         0.0960
       8    C3      20.441597   19.464827   21.728834 C.3        1 MOL1        -0.1409
       9    H6      21.400778   19.684598   22.214393 H          1 MOL1         0.0960
      10    H7      19.880013   20.408894   21.709276 H          1 MOL1         0.0960
      11    C4      19.666704   18.411721   22.561556 C.3        1 MOL1        -0.1409
      12    H8      20.229781   17.468618   22.584508 H          1 MOL1         0.0960
      13    H9      18.711849   18.189177   22.068259 H          1 MOL1         0.0960
      14    C5      19.359586   18.868277   24.009405 C.3        1 MOL1        -0.1409
      15    H10     18.809142   19.819022   23.986454 H          1 MOL1         0.0960
      16    H11     18.682930   18.131415   24.461876 H          1 MOL1         0.0960
      17    C6      20.621953   19.016090   24.895892 C.3        1 MOL1        -0.1450
      18    H12     21.283602   19.784460   24.477773 H          1 MOL1         0.0960
      19    H13     21.191955   18.077555   24.899416 H          1 MOL1         0.0960
      20    C7      20.286029   19.418465   26.345064 C.3        1 MOL1         0.0172
      21    H14     21.213704   19.603288   26.893531 H          1 MOL1         0.0934
      22    H15     19.700832   20.342019   26.344516 H          1 MOL1         0.0934
      23    N1      19.505043   18.366064   27.107648 N.4        1 MOL1        -0.5956
      24    H16     19.311674   18.659562   28.071384 H          1 MOL1         0.3624
      25    H17     20.014960   17.478328   27.161772 H          1 MOL1         0.3624
      26    H18     18.601017   18.170009   26.667024 H          1 MOL1         0.3624
@<TRIPOS>BOND
    1     1     2    1
    2     1     3    1
    3     1     4    1
    4     1     5    1
    5     5     6    1
    6     5     7    1
    7     5     8    1
    8     8     9    1
    9     8    10    1
   10     8    11    1
   11    11    12    1
   12    11    13    1
   13    11    14    1
   14    14    15    1
   15    14    16    1
   16    14    17    1
   17    17    18    1
   18    17    19    1
   19    17    20    1
   20    20    21    1
   21    20    22    1
   22    20    23    1
   23    23    24    1
   24    23    25    1
   25    23    26    1
@<TRIPOS>SUBSTRUCTURE
       1 MOL1            1 RESIDUE      1      MOL     
@<SCITEGIC>MOL_PROPERTY
VM2 Rank
SciTegic.value.IntegerValue
63

@<SCITEGIC>MOL_PROPERTY
Conf_Id
SciTegic.value.IntegerValue
978

@<SCITEGIC>MOL_PROPERTY
Probability
SciTegic.value.DoubleValue
0.46

@<SCITEGIC>MOL_PROPERTY
Sum Probability
SciTegic.value.DoubleValue
88.89

@<SCITEGIC>MOL_PROPERTY
Delta G
SciTegic.value.DoubleValue
1.650

@<SCITEGIC>MOL_PROPERTY
G
SciTegic.value.DoubleValue
49.911

@<SCITEGIC>MOL_PROPERTY
E
SciTegic.value.DoubleValue
17.332

@<SCITEGIC>MOL_PROPERTY
-TS
SciTegic.value.DoubleValue
32.579

@<SCITEGIC>MOL_PROPERTY
U+W
SciTegic.value.DoubleValue
-4.130

@<SCITEGIC>MOL_PROPERTY
U
SciTegic.value.DoubleValue
49.323

@<SCITEGIC>MOL_PROPERTY
W
SciTegic.value.DoubleValue
-53.453

@<SCITEGIC>MOL_PROPERTY
W(PB)
SciTegic.value.DoubleValue
-55.748

@<SCITEGIC>MOL_PROPERTY
W(SA)
SciTegic.value.DoubleValue
2.296

@<SCITEGIC>MOL_PROPERTY
Valence
SciTegic.value.DoubleValue
3.408

@<SCITEGIC>MOL_PROPERTY
Coulomb
SciTegic.value.DoubleValue
44.893

@<SCITEGIC>MOL_PROPERTY
VdW
SciTegic.value.DoubleValue
1.021

@<SCITEGIC>MOL_PROPERTY
VdW6
SciTegic.value.DoubleValue
-7.481

@<SCITEGIC>MOL_PROPERTY
VdW12
SciTegic.value.DoubleValue
8.502

@<SCITEGIC>MOL_PROPERTY
Bond
SciTegic.value.DoubleValue
0.239

@<SCITEGIC>MOL_PROPERTY
Angle
SciTegic.value.DoubleValue
1.013

@<SCITEGIC>MOL_PROPERTY
Pdih
SciTegic.value.DoubleValue
2.157

@<SCITEGIC>MOL_PROPERTY
Idih
SciTegic.value.DoubleValue
0.000

@<SCITEGIC>MOL_PROPERTY
Tether
SciTegic.value.DoubleValue
0.000

@<TRIPOS>MOLECULE
guest-s14_vm2.mol2 : vm2 ligand conformer 64
          26          25           1
SMALL
USER_CHARGES
 
@<TRIPOS>ATOM
       1    C1      19.341654   19.834556   19.732974 C.3        1 MOL1        -0.2400
       2    H1      20.039628   19.535352   18.940184 H          1 MOL1         0.0971
       3    H2      18.326933   19.810360   19.314922 H          1 MOL1         0.0971
       4    H3      19.566309   20.872052   20.012859 H          1 MOL1         0.0971
       5    C2      19.450974   18.895266   20.952742 C.3        1 MOL1        -0.1385
       6    H4      19.192233   17.871311   20.649077 H          1 MOL1         0.0960
       7    H5      18.711991   19.201320   21.705166 H          1 MOL1         0.0960
       8    C3      20.872368   18.915519   21.562581 C.3        1 MOL1        -0.1409
       9    H6      21.601371   18.681348   20.774579 H          1 MOL1         0.0960
      10    H7      21.115956   19.930145   21.904044 H          1 MOL1         0.0960
      11    C4      21.066584   17.903021   22.721103 C.3        1 MOL1        -0.1409
      12    H8      22.105789   17.964854   23.072414 H          1 MOL1         0.0960
      13    H9      20.944080   16.884996   22.326343 H          1 MOL1         0.0960
      14    C5      20.115436   18.083462   23.932716 C.3        1 MOL1        -0.1409
      15    H10     19.076397   17.907798   23.624049 H          1 MOL1         0.0960
      16    H11     20.348413   17.299457   24.665182 H          1 MOL1         0.0960
      17    C6      20.232294   19.471595   24.610659 C.3        1 MOL1        -0.1450
      18    H12     19.958252   20.257413   23.895692 H          1 MOL1         0.0960
      19    H13     21.273321   19.661183   24.903956 H          1 MOL1         0.0960
      20    C7      19.316851   19.610380   25.842381 C.3        1 MOL1         0.0172
      21    H14     19.368121   20.636088   26.217673 H          1 MOL1         0.0934
      22    H15     18.281898   19.403228   25.557163 H          1 MOL1         0.0934
      23    N1      19.684839   18.685201   26.985843 N.4        1 MOL1        -0.5956
      24    H16     19.065764   18.813523   27.793658 H          1 MOL1         0.3624
      25    H17     20.642457   18.847694   27.313806 H          1 MOL1         0.3624
      26    H18     19.621104   17.699680   26.712883 H          1 MOL1         0.3624
@<TRIPOS>BOND
    1     1     2    1
    2     1     3    1
    3     1     4    1
    4     1     5    1
    5     5     6    1
    6     5     7    1
    7     5     8    1
    8     8     9    1
    9     8    10    1
   10     8    11    1
   11    11    12    1
   12    11    13    1
   13    11    14    1
   14    14    15    1
   15    14    16    1
   16    14    17    1
   17    17    18    1
   18    17    19    1
   19    17    20    1
   20    20    21    1
   21    20    22    1
   22    20    23    1
   23    23    24    1
   24    23    25    1
   25    23    26    1
@<TRIPOS>SUBSTRUCTURE
       1 MOL1            1 RESIDUE      1      MOL     
@<SCITEGIC>MOL_PROPERTY
VM2 Rank
SciTegic.value.IntegerValue
64

@<SCITEGIC>MOL_PROPERTY
Conf_Id
SciTegic.value.IntegerValue
431

@<SCITEGIC>MOL_PROPERTY
Probability
SciTegic.value.DoubleValue
0.45

@<SCITEGIC>MOL_PROPERTY
Sum Probability
SciTegic.value.DoubleValue
89.34

@<SCITEGIC>MOL_PROPERTY
Delta G
SciTegic.value.DoubleValue
1.655

@<SCITEGIC>MOL_PROPERTY
G
SciTegic.value.DoubleValue
49.916

@<SCITEGIC>MOL_PROPERTY
E
SciTegic.value.DoubleValue
17.026

@<SCITEGIC>MOL_PROPERTY
-TS
SciTegic.value.DoubleValue
32.890

@<SCITEGIC>MOL_PROPERTY
U+W
SciTegic.value.DoubleValue
-4.436

@<SCITEGIC>MOL_PROPERTY
U
SciTegic.value.DoubleValue
49.231

@<SCITEGIC>MOL_PROPERTY
W
SciTegic.value.DoubleValue
-53.667

@<SCITEGIC>MOL_PROPERTY
W(PB)
SciTegic.value.DoubleValue
-55.963

@<SCITEGIC>MOL_PROPERTY
W(SA)
SciTegic.value.DoubleValue
2.296

@<SCITEGIC>MOL_PROPERTY
Valence
SciTegic.value.DoubleValue
3.277

@<SCITEGIC>MOL_PROPERTY
Coulomb
SciTegic.value.DoubleValue
45.175

@<SCITEGIC>MOL_PROPERTY
VdW
SciTegic.value.DoubleValue
0.779

@<SCITEGIC>MOL_PROPERTY
VdW6
SciTegic.value.DoubleValue
-7.944

@<SCITEGIC>MOL_PROPERTY
VdW12
SciTegic.value.DoubleValue
8.723

@<SCITEGIC>MOL_PROPERTY
Bond
SciTegic.value.DoubleValue
0.239

@<SCITEGIC>MOL_PROPERTY
Angle
SciTegic.value.DoubleValue
1.155

@<SCITEGIC>MOL_PROPERTY
Pdih
SciTegic.value.DoubleValue
1.883

@<SCITEGIC>MOL_PROPERTY
Idih
SciTegic.value.DoubleValue
0.000

@<SCITEGIC>MOL_PROPERTY
Tether
SciTegic.value.DoubleValue
0.000

@<TRIPOS>MOLECULE
guest-s14_vm2.mol2 : vm2 ligand conformer 65
          26          25           1
SMALL
USER_CHARGES
 
@<TRIPOS>ATOM
       1    C1      20.919216   20.087483   20.086037 C.3        1 MOL1        -0.2400
       2    H1      20.483147   21.051144   20.379979 H          1 MOL1         0.0971
       3    H2      21.981138   20.252292   19.862059 H          1 MOL1         0.0971
       4    H3      20.427472   19.757233   19.161740 H          1 MOL1         0.0971
       5    C2      20.755069   19.039722   21.207299 C.3        1 MOL1        -0.1385
       6    H4      21.292484   19.386473   22.099869 H          1 MOL1         0.0960
       7    H5      21.226159   18.096583   20.897144 H          1 MOL1         0.0960
       8    C3      19.265554   18.793318   21.543957 C.3        1 MOL1        -0.1409
       9    H6      18.804475   19.726544   21.893319 H          1 MOL1         0.0960
      10    H7      18.732275   18.521169   20.622673 H          1 MOL1         0.0960
      11    C4      19.041924   17.667418   22.586596 C.3        1 MOL1        -0.1409
      12    H8      19.402026   16.717707   22.167574 H          1 MOL1         0.0960
      13    H9      17.961547   17.537379   22.738444 H          1 MOL1         0.0960
      14    C5      19.719278   17.893149   23.963037 C.3        1 MOL1        -0.1409
      15    H10     19.488576   17.033051   24.606832 H          1 MOL1         0.0960
      16    H11     20.810024   17.896130   23.842435 H          1 MOL1         0.0960
      17    C6      19.256926   19.190007   24.672711 C.3        1 MOL1        -0.1450
      18    H12     18.159939   19.208851   24.717184 H          1 MOL1         0.0960
      19    H13     19.564445   20.072307   24.097099 H          1 MOL1         0.0960
      20    C7      19.806280   19.307670   26.107301 C.3        1 MOL1         0.0172
      21    H14     19.385757   20.196626   26.585269 H          1 MOL1         0.0934
      22    H15     19.505213   18.432703   26.689685 H          1 MOL1         0.0934
      23    N1      21.316753   19.420234   26.174062 N.4        1 MOL1        -0.5956
      24    H16     21.649161   19.507908   27.140563 H          1 MOL1         0.3624
      25    H17     21.660361   20.240189   25.663720 H          1 MOL1         0.3624
      26    H18     21.776516   18.597396   25.772309 H          1 MOL1         0.3624
@<TRIPOS>BOND
    1     1     2    1
    2     1     3    1
    3     1     4    1
    4     1     5    1
    5     5     6    1
    6     5     7    1
    7     5     8    1
    8     8     9    1
    9     8    10    1
   10     8    11    1
   11    11    12    1
   12    11    13    1
   13    11    14    1
   14    14    15    1
   15    14    16    1
   16    14    17    1
   17    17    18    1
   18    17    19    1
   19    17    20    1
   20    20    21    1
   21    20    22    1
   22    20    23    1
   23    23    24    1
   24    23    25    1
   25    23    26    1
@<TRIPOS>SUBSTRUCTURE
       1 MOL1            1 RESIDUE      1      MOL     
@<SCITEGIC>MOL_PROPERTY
VM2 Rank
SciTegic.value.IntegerValue
65

@<SCITEGIC>MOL_PROPERTY
Conf_Id
SciTegic.value.IntegerValue
800

@<SCITEGIC>MOL_PROPERTY
Probability
SciTegic.value.DoubleValue
0.45

@<SCITEGIC>MOL_PROPERTY
Sum Probability
SciTegic.value.DoubleValue
89.79

@<SCITEGIC>MOL_PROPERTY
Delta G
SciTegic.value.DoubleValue
1.662

@<SCITEGIC>MOL_PROPERTY
G
SciTegic.value.DoubleValue
49.923

@<SCITEGIC>MOL_PROPERTY
E
SciTegic.value.DoubleValue
17.017

@<SCITEGIC>MOL_PROPERTY
-TS
SciTegic.value.DoubleValue
32.906

@<SCITEGIC>MOL_PROPERTY
U+W
SciTegic.value.DoubleValue
-4.444

@<SCITEGIC>MOL_PROPERTY
U
SciTegic.value.DoubleValue
49.678

@<SCITEGIC>MOL_PROPERTY
W
SciTegic.value.DoubleValue
-54.122

@<SCITEGIC>MOL_PROPERTY
W(PB)
SciTegic.value.DoubleValue
-56.391

@<SCITEGIC>MOL_PROPERTY
W(SA)
SciTegic.value.DoubleValue
2.269

@<SCITEGIC>MOL_PROPERTY
Valence
SciTegic.value.DoubleValue
3.238

@<SCITEGIC>MOL_PROPERTY
Coulomb
SciTegic.value.DoubleValue
45.761

@<SCITEGIC>MOL_PROPERTY
VdW
SciTegic.value.DoubleValue
0.679

@<SCITEGIC>MOL_PROPERTY
VdW6
SciTegic.value.DoubleValue
-8.038

@<SCITEGIC>MOL_PROPERTY
VdW12
SciTegic.value.DoubleValue
8.717

@<SCITEGIC>MOL_PROPERTY
Bond
SciTegic.value.DoubleValue
0.234

@<SCITEGIC>MOL_PROPERTY
Angle
SciTegic.value.DoubleValue
1.079

@<SCITEGIC>MOL_PROPERTY
Pdih
SciTegic.value.DoubleValue
1.925

@<SCITEGIC>MOL_PROPERTY
Idih
SciTegic.value.DoubleValue
0.000

@<SCITEGIC>MOL_PROPERTY
Tether
SciTegic.value.DoubleValue
0.000

@<TRIPOS>MOLECULE
guest-s14_vm2.mol2 : vm2 ligand conformer 66
          26          25           1
SMALL
USER_CHARGES
 
@<TRIPOS>ATOM
       1    C1      18.562607   18.996294   20.440732 C.3        1 MOL1        -0.2400
       2    H1      17.916752   18.352838   21.052162 H          1 MOL1         0.0971
       3    H2      18.464257   20.026933   20.803499 H          1 MOL1         0.0971
       4    H3      18.183169   18.971412   19.411013 H          1 MOL1         0.0971
       5    C2      20.030779   18.515646   20.487837 C.3        1 MOL1        -0.1385
       6    H4      20.660332   19.190867   19.891629 H          1 MOL1         0.0960
       7    H5      20.096543   17.529586   20.007083 H          1 MOL1         0.0960
       8    C3      20.594099   18.406356   21.925099 C.3        1 MOL1        -0.1409
       9    H6      19.971527   17.709495   22.501569 H          1 MOL1         0.0960
      10    H7      21.596842   17.960155   21.875122 H          1 MOL1         0.0960
      11    C4      20.682812   19.770356   22.654831 C.3        1 MOL1        -0.1409
      12    H8      19.677370   20.183684   22.805186 H          1 MOL1         0.0960
      13    H9      21.212742   20.486326   22.011691 H          1 MOL1         0.0960
      14    C5      21.422309   19.694647   24.015601 C.3        1 MOL1        -0.1409
      15    H10     22.463341   19.388200   23.843661 H          1 MOL1         0.0960
      16    H11     21.472062   20.704323   24.446302 H          1 MOL1         0.0960
      17    C6      20.781162   18.738352   25.051943 C.3        1 MOL1        -0.1450
      18    H12     21.364061   18.781624   25.981550 H          1 MOL1         0.0960
      19    H13     20.845471   17.701857   24.696982 H          1 MOL1         0.0960
      20    C7      19.314143   19.091142   25.360331 C.3        1 MOL1         0.0172
      21    H14     19.251938   20.120133   25.724533 H          1 MOL1         0.0934
      22    H15     18.716279   19.011277   24.448613 H          1 MOL1         0.0934
      23    N1      18.693089   18.186207   26.404626 N.4        1 MOL1        -0.5956
      24    H16     18.696446   17.204197   26.110225 H          1 MOL1         0.3624
      25    H17     17.716985   18.437881   26.594850 H          1 MOL1         0.3624
      26    H18     19.193213   18.235159   27.298289 H          1 MOL1         0.3624
@<TRIPOS>BOND
    1     1     2    1
    2     1     3    1
    3     1     4    1
    4     1     5    1
    5     5     6    1
    6     5     7    1
    7     5     8    1
    8     8     9    1
    9     8    10    1
   10     8    11    1
   11    11    12    1
   12    11    13    1
   13    11    14    1
   14    14    15    1
   15    14    16    1
   16    14    17    1
   17    17    18    1
   18    17    19    1
   19    17    20    1
   20    20    21    1
   21    20    22    1
   22    20    23    1
   23    23    24    1
   24    23    25    1
   25    23    26    1
@<TRIPOS>SUBSTRUCTURE
       1 MOL1            1 RESIDUE      1      MOL     
@<SCITEGIC>MOL_PROPERTY
VM2 Rank
SciTegic.value.IntegerValue
66

@<SCITEGIC>MOL_PROPERTY
Conf_Id
SciTegic.value.IntegerValue
570

@<SCITEGIC>MOL_PROPERTY
Probability
SciTegic.value.DoubleValue
0.45

@<SCITEGIC>MOL_PROPERTY
Sum Probability
SciTegic.value.DoubleValue
90.24

@<SCITEGIC>MOL_PROPERTY
Delta G
SciTegic.value.DoubleValue
1.665

@<SCITEGIC>MOL_PROPERTY
G
SciTegic.value.DoubleValue
49.926

@<SCITEGIC>MOL_PROPERTY
E
SciTegic.value.DoubleValue
17.106

@<SCITEGIC>MOL_PROPERTY
-TS
SciTegic.value.DoubleValue
32.820

@<SCITEGIC>MOL_PROPERTY
U+W
SciTegic.value.DoubleValue
-4.356

@<SCITEGIC>MOL_PROPERTY
U
SciTegic.value.DoubleValue
49.567

@<SCITEGIC>MOL_PROPERTY
W
SciTegic.value.DoubleValue
-53.923

@<SCITEGIC>MOL_PROPERTY
W(PB)
SciTegic.value.DoubleValue
-56.210

@<SCITEGIC>MOL_PROPERTY
W(SA)
SciTegic.value.DoubleValue
2.287

@<SCITEGIC>MOL_PROPERTY
Valence
SciTegic.value.DoubleValue
3.380

@<SCITEGIC>MOL_PROPERTY
Coulomb
SciTegic.value.DoubleValue
45.516

@<SCITEGIC>MOL_PROPERTY
VdW
SciTegic.value.DoubleValue
0.670

@<SCITEGIC>MOL_PROPERTY
VdW6
SciTegic.value.DoubleValue
-8.071

@<SCITEGIC>MOL_PROPERTY
VdW12
SciTegic.value.DoubleValue
8.742

@<SCITEGIC>MOL_PROPERTY
Bond
SciTegic.value.DoubleValue
0.231

@<SCITEGIC>MOL_PROPERTY
Angle
SciTegic.value.DoubleValue
1.069

@<SCITEGIC>MOL_PROPERTY
Pdih
SciTegic.value.DoubleValue
2.080

@<SCITEGIC>MOL_PROPERTY
Idih
SciTegic.value.DoubleValue
0.000

@<SCITEGIC>MOL_PROPERTY
Tether
SciTegic.value.DoubleValue
0.000

@<TRIPOS>MOLECULE
guest-s14_vm2.mol2 : vm2 ligand conformer 67
          26          25           1
SMALL
USER_CHARGES
 
@<TRIPOS>ATOM
       1    C1      19.945002   19.621868   19.485100 C.3        1 MOL1        -0.2400
       2    H1      20.029241   19.382632   18.417109 H          1 MOL1         0.0971
       3    H2      18.877486   19.723539   19.715878 H          1 MOL1         0.0971
       4    H3      20.427446   20.593996   19.650093 H          1 MOL1         0.0971
       5    C2      20.609998   18.518932   20.339786 C.3        1 MOL1        -0.1385
       6    H4      21.638389   18.368608   19.982539 H          1 MOL1         0.0960
       7    H5      20.088172   17.564428   20.183687 H          1 MOL1         0.0960
       8    C3      20.654633   18.850504   21.851234 C.3        1 MOL1        -0.1409
       9    H6      21.259139   18.081400   22.348706 H          1 MOL1         0.0960
      10    H7      21.179782   19.803669   22.001924 H          1 MOL1         0.0960
      11    C4      19.253158   18.914948   22.510167 C.3        1 MOL1        -0.1409
      12    H8      18.728148   17.961652   22.359818 H          1 MOL1         0.0960
      13    H9      18.649276   19.682468   22.009276 H          1 MOL1         0.0960
      14    C5      19.295763   19.251539   24.021194 C.3        1 MOL1        -0.1409
      15    H10     19.816195   20.207882   24.164909 H          1 MOL1         0.0960
      16    H11     18.265535   19.403908   24.371932 H          1 MOL1         0.0960
      17    C6      19.960056   18.149018   24.883410 C.3        1 MOL1        -0.1450
      18    H12     21.023564   18.051839   24.631910 H          1 MOL1         0.0960
      19    H13     19.492943   17.180756   24.659730 H          1 MOL1         0.0960
      20    C7      19.823919   18.418600   26.394297 C.3        1 MOL1         0.0172
      21    H14     18.767010   18.513874   26.657466 H          1 MOL1         0.0934
      22    H15     20.239710   17.575377   26.952547 H          1 MOL1         0.0934
      23    N1      20.538470   19.673591   26.855811 N.4        1 MOL1        -0.5956
      24    H16     20.438008   19.819139   27.866267 H          1 MOL1         0.3624
      25    H17     20.170579   20.511053   26.393993 H          1 MOL1         0.3624
      26    H18     21.543461   19.634382   26.657322 H          1 MOL1         0.3624
@<TRIPOS>BOND
    1     1     2    1
    2     1     3    1
    3     1     4    1
    4     1     5    1
    5     5     6    1
    6     5     7    1
    7     5     8    1
    8     8     9    1
    9     8    10    1
   10     8    11    1
   11    11    12    1
   12    11    13    1
   13    11    14    1
   14    14    15    1
   15    14    16    1
   16    14    17    1
   17    17    18    1
   18    17    19    1
   19    17    20    1
   20    20    21    1
   21    20    22    1
   22    20    23    1
   23    23    24    1
   24    23    25    1
   25    23    26    1
@<TRIPOS>SUBSTRUCTURE
       1 MOL1            1 RESIDUE      1      MOL     
@<SCITEGIC>MOL_PROPERTY
VM2 Rank
SciTegic.value.IntegerValue
67

@<SCITEGIC>MOL_PROPERTY
Conf_Id
SciTegic.value.IntegerValue
277

@<SCITEGIC>MOL_PROPERTY
Probability
SciTegic.value.DoubleValue
0.44

@<SCITEGIC>MOL_PROPERTY
Sum Probability
SciTegic.value.DoubleValue
90.68

@<SCITEGIC>MOL_PROPERTY
Delta G
SciTegic.value.DoubleValue
1.668

@<SCITEGIC>MOL_PROPERTY
G
SciTegic.value.DoubleValue
49.929

@<SCITEGIC>MOL_PROPERTY
E
SciTegic.value.DoubleValue
17.303

@<SCITEGIC>MOL_PROPERTY
-TS
SciTegic.value.DoubleValue
32.626

@<SCITEGIC>MOL_PROPERTY
U+W
SciTegic.value.DoubleValue
-4.159

@<SCITEGIC>MOL_PROPERTY
U
SciTegic.value.DoubleValue
49.401

@<SCITEGIC>MOL_PROPERTY
W
SciTegic.value.DoubleValue
-53.560

@<SCITEGIC>MOL_PROPERTY
W(PB)
SciTegic.value.DoubleValue
-55.886

@<SCITEGIC>MOL_PROPERTY
W(SA)
SciTegic.value.DoubleValue
2.327

@<SCITEGIC>MOL_PROPERTY
Valence
SciTegic.value.DoubleValue
3.370

@<SCITEGIC>MOL_PROPERTY
Coulomb
SciTegic.value.DoubleValue
45.066

@<SCITEGIC>MOL_PROPERTY
VdW
SciTegic.value.DoubleValue
0.965

@<SCITEGIC>MOL_PROPERTY
VdW6
SciTegic.value.DoubleValue
-7.529

@<SCITEGIC>MOL_PROPERTY
VdW12
SciTegic.value.DoubleValue
8.494

@<SCITEGIC>MOL_PROPERTY
Bond
SciTegic.value.DoubleValue
0.232

@<SCITEGIC>MOL_PROPERTY
Angle
SciTegic.value.DoubleValue
0.963

@<SCITEGIC>MOL_PROPERTY
Pdih
SciTegic.value.DoubleValue
2.174

@<SCITEGIC>MOL_PROPERTY
Idih
SciTegic.value.DoubleValue
0.000

@<SCITEGIC>MOL_PROPERTY
Tether
SciTegic.value.DoubleValue
0.000

@<TRIPOS>MOLECULE
guest-s14_vm2.mol2 : vm2 ligand conformer 68
          26          25           1
SMALL
USER_CHARGES
 
@<TRIPOS>ATOM
       1    C1      20.141521   19.543842   19.287429 C.3        1 MOL1        -0.2400
       2    H1      20.203697   20.634970   19.391406 H          1 MOL1         0.0971
       3    H2      20.900881   19.230834   18.559117 H          1 MOL1         0.0971
       4    H3      19.155530   19.295348   18.873553 H          1 MOL1         0.0971
       5    C2      20.366837   18.843929   20.644519 C.3        1 MOL1        -0.1385
       6    H4      21.376268   19.082964   21.004149 H          1 MOL1         0.0960
       7    H5      20.327876   17.754795   20.503227 H          1 MOL1         0.0960
       8    C3      19.309988   19.273507   21.689563 C.3        1 MOL1        -0.1409
       9    H6      19.386687   20.354295   21.871744 H          1 MOL1         0.0960
      10    H7      18.307925   19.102269   21.272538 H          1 MOL1         0.0960
      11    C4      19.417089   18.510916   23.033169 C.3        1 MOL1        -0.1409
      12    H8      19.336971   17.430625   22.849541 H          1 MOL1         0.0960
      13    H9      18.549612   18.784097   23.648118 H          1 MOL1         0.0960
      14    C5      20.721220   18.813249   23.814363 C.3        1 MOL1        -0.1409
      15    H10     21.588706   18.513379   23.212584 H          1 MOL1         0.0960
      16    H11     20.817693   19.895680   23.971960 H          1 MOL1         0.0960
      17    C6      20.802965   18.073017   25.173318 C.3        1 MOL1        -0.1450
      18    H12     21.771865   18.286509   25.643927 H          1 MOL1         0.0960
      19    H13     20.781191   16.989392   24.996842 H          1 MOL1         0.0960
      20    C7      19.674522   18.436535   26.159899 C.3        1 MOL1         0.0172
      21    H14     18.705096   18.180305   25.725123 H          1 MOL1         0.0934
      22    H15     19.796659   17.857808   27.079496 H          1 MOL1         0.0934
      23    N1      19.646856   19.904005   26.538741 N.4        1 MOL1        -0.5956
      24    H16     18.892114   20.112557   27.201345 H          1 MOL1         0.3624
      25    H17     19.502832   20.502375   25.719463 H          1 MOL1         0.3624
      26    H18     20.523621   20.199395   26.980243 H          1 MOL1         0.3624
@<TRIPOS>BOND
    1     1     2    1
    2     1     3    1
    3     1     4    1
    4     1     5    1
    5     5     6    1
    6     5     7    1
    7     5     8    1
    8     8     9    1
    9     8    10    1
   10     8    11    1
   11    11    12    1
   12    11    13    1
   13    11    14    1
   14    14    15    1
   15    14    16    1
   16    14    17    1
   17    17    18    1
   18    17    19    1
   19    17    20    1
   20    20    21    1
   21    20    22    1
   22    20    23    1
   23    23    24    1
   24    23    25    1
   25    23    26    1
@<TRIPOS>SUBSTRUCTURE
       1 MOL1            1 RESIDUE      1      MOL     
@<SCITEGIC>MOL_PROPERTY
VM2 Rank
SciTegic.value.IntegerValue
68

@<SCITEGIC>MOL_PROPERTY
Conf_Id
SciTegic.value.IntegerValue
529

@<SCITEGIC>MOL_PROPERTY
Probability
SciTegic.value.DoubleValue
0.44

@<SCITEGIC>MOL_PROPERTY
Sum Probability
SciTegic.value.DoubleValue
91.12

@<SCITEGIC>MOL_PROPERTY
Delta G
SciTegic.value.DoubleValue
1.678

@<SCITEGIC>MOL_PROPERTY
G
SciTegic.value.DoubleValue
49.939

@<SCITEGIC>MOL_PROPERTY
E
SciTegic.value.DoubleValue
17.231

@<SCITEGIC>MOL_PROPERTY
-TS
SciTegic.value.DoubleValue
32.708

@<SCITEGIC>MOL_PROPERTY
U+W
SciTegic.value.DoubleValue
-4.230

@<SCITEGIC>MOL_PROPERTY
U
SciTegic.value.DoubleValue
49.425

@<SCITEGIC>MOL_PROPERTY
W
SciTegic.value.DoubleValue
-53.655

@<SCITEGIC>MOL_PROPERTY
W(PB)
SciTegic.value.DoubleValue
-55.942

@<SCITEGIC>MOL_PROPERTY
W(SA)
SciTegic.value.DoubleValue
2.286

@<SCITEGIC>MOL_PROPERTY
Valence
SciTegic.value.DoubleValue
3.135

@<SCITEGIC>MOL_PROPERTY
Coulomb
SciTegic.value.DoubleValue
45.468

@<SCITEGIC>MOL_PROPERTY
VdW
SciTegic.value.DoubleValue
0.822

@<SCITEGIC>MOL_PROPERTY
VdW6
SciTegic.value.DoubleValue
-7.705

@<SCITEGIC>MOL_PROPERTY
VdW12
SciTegic.value.DoubleValue
8.527

@<SCITEGIC>MOL_PROPERTY
Bond
SciTegic.value.DoubleValue
0.222

@<SCITEGIC>MOL_PROPERTY
Angle
SciTegic.value.DoubleValue
0.941

@<SCITEGIC>MOL_PROPERTY
Pdih
SciTegic.value.DoubleValue
1.972

@<SCITEGIC>MOL_PROPERTY
Idih
SciTegic.value.DoubleValue
0.000

@<SCITEGIC>MOL_PROPERTY
Tether
SciTegic.value.DoubleValue
0.000

@<TRIPOS>MOLECULE
guest-s14_vm2.mol2 : vm2 ligand conformer 69
          26          25           1
SMALL
USER_CHARGES
 
@<TRIPOS>ATOM
       1    C1      20.346790   18.264065   19.485207 C.3        1 MOL1        -0.2400
       2    H1      19.373153   18.559292   19.072759 H          1 MOL1         0.0971
       3    H2      21.112325   18.928798   19.064128 H          1 MOL1         0.0971
       4    H3      20.562207   17.243416   19.143299 H          1 MOL1         0.0971
       5    C2      20.339268   18.332112   21.027121 C.3        1 MOL1        -0.1385
       6    H4      21.315308   18.003556   21.410558 H          1 MOL1         0.0960
       7    H5      19.591298   17.625689   21.410751 H          1 MOL1         0.0960
       8    C3      20.033323   19.761726   21.532922 C.3        1 MOL1        -0.1409
       9    H6      20.745790   20.462133   21.075586 H          1 MOL1         0.0960
      10    H7      19.035796   20.070314   21.190941 H          1 MOL1         0.0960
      11    C4      20.122738   19.906257   23.071887 C.3        1 MOL1        -0.1409
      12    H8      20.006619   20.968284   23.328528 H          1 MOL1         0.0960
      13    H9      21.128625   19.616370   23.403771 H          1 MOL1         0.0960
      14    C5      19.051022   19.084433   23.831779 C.3        1 MOL1        -0.1409
      15    H10     18.059284   19.318064   23.420659 H          1 MOL1         0.0960
      16    H11     19.206882   18.011218   23.664836 H          1 MOL1         0.0960
      17    C6      19.034011   19.372406   25.353935 C.3        1 MOL1        -0.1450
      18    H12     18.232743   18.788055   25.825429 H          1 MOL1         0.0960
      19    H13     18.780943   20.427983   25.519973 H          1 MOL1         0.0960
      20    C7      20.368071   19.066178   26.064506 C.3        1 MOL1         0.0172
      21    H14     21.165751   19.675557   25.631984 H          1 MOL1         0.0934
      22    H15     20.282080   19.322230   27.124004 H          1 MOL1         0.0934
      23    N1      20.785779   17.611822   25.973643 N.4        1 MOL1        -0.5956
      24    H16     20.913680   17.316244   25.000949 H          1 MOL1         0.3624
      25    H17     20.086962   16.988833   26.391335 H          1 MOL1         0.3624
      26    H18     21.671531   17.438594   26.461123 H          1 MOL1         0.3624
@<TRIPOS>BOND
    1     1     2    1
    2     1     3    1
    3     1     4    1
    4     1     5    1
    5     5     6    1
    6     5     7    1
    7     5     8    1
    8     8     9    1
    9     8    10    1
   10     8    11    1
   11    11    12    1
   12    11    13    1
   13    11    14    1
   14    14    15    1
   15    14    16    1
   16    14    17    1
   17    17    18    1
   18    17    19    1
   19    17    20    1
   20    20    21    1
   21    20    22    1
   22    20    23    1
   23    23    24    1
   24    23    25    1
   25    23    26    1
@<TRIPOS>SUBSTRUCTURE
       1 MOL1            1 RESIDUE      1      MOL     
@<SCITEGIC>MOL_PROPERTY
VM2 Rank
SciTegic.value.IntegerValue
69

@<SCITEGIC>MOL_PROPERTY
Conf_Id
SciTegic.value.IntegerValue
841

@<SCITEGIC>MOL_PROPERTY
Probability
SciTegic.value.DoubleValue
0.42

@<SCITEGIC>MOL_PROPERTY
Sum Probability
SciTegic.value.DoubleValue
91.54

@<SCITEGIC>MOL_PROPERTY
Delta G
SciTegic.value.DoubleValue
1.698

@<SCITEGIC>MOL_PROPERTY
G
SciTegic.value.DoubleValue
49.959

@<SCITEGIC>MOL_PROPERTY
E
SciTegic.value.DoubleValue
17.208

@<SCITEGIC>MOL_PROPERTY
-TS
SciTegic.value.DoubleValue
32.751

@<SCITEGIC>MOL_PROPERTY
U+W
SciTegic.value.DoubleValue
-4.254

@<SCITEGIC>MOL_PROPERTY
U
SciTegic.value.DoubleValue
49.691

@<SCITEGIC>MOL_PROPERTY
W
SciTegic.value.DoubleValue
-53.945

@<SCITEGIC>MOL_PROPERTY
W(PB)
SciTegic.value.DoubleValue
-56.226

@<SCITEGIC>MOL_PROPERTY
W(SA)
SciTegic.value.DoubleValue
2.281

@<SCITEGIC>MOL_PROPERTY
Valence
SciTegic.value.DoubleValue
3.067

@<SCITEGIC>MOL_PROPERTY
Coulomb
SciTegic.value.DoubleValue
45.912

@<SCITEGIC>MOL_PROPERTY
VdW
SciTegic.value.DoubleValue
0.712

@<SCITEGIC>MOL_PROPERTY
VdW6
SciTegic.value.DoubleValue
-7.810

@<SCITEGIC>MOL_PROPERTY
VdW12
SciTegic.value.DoubleValue
8.523

@<SCITEGIC>MOL_PROPERTY
Bond
SciTegic.value.DoubleValue
0.215

@<SCITEGIC>MOL_PROPERTY
Angle
SciTegic.value.DoubleValue
0.854

@<SCITEGIC>MOL_PROPERTY
Pdih
SciTegic.value.DoubleValue
1.997

@<SCITEGIC>MOL_PROPERTY
Idih
SciTegic.value.DoubleValue
0.000

@<SCITEGIC>MOL_PROPERTY
Tether
SciTegic.value.DoubleValue
0.000

@<TRIPOS>MOLECULE
guest-s14_vm2.mol2 : vm2 ligand conformer 70
          26          25           1
SMALL
USER_CHARGES
 
@<TRIPOS>ATOM
       1    C1      18.882868   18.473817   19.956858 C.3        1 MOL1        -0.2400
       2    H1      19.064290   17.672068   19.229332 H          1 MOL1         0.0971
       3    H2      17.955025   18.237933   20.494130 H          1 MOL1         0.0971
       4    H3      18.727288   19.406207   19.398608 H          1 MOL1         0.0971
       5    C2      20.071227   18.602845   20.933135 C.3        1 MOL1        -0.1385
       6    H4      20.989233   18.808671   20.365216 H          1 MOL1         0.0960
       7    H5      20.220492   17.641409   21.442239 H          1 MOL1         0.0960
       8    C3      19.837111   19.725470   21.971108 C.3        1 MOL1        -0.1409
       9    H6      19.624871   20.663410   21.439690 H          1 MOL1         0.0960
      10    H7      18.938306   19.504090   22.561603 H          1 MOL1         0.0960
      11    C4      21.046605   19.960882   22.912255 C.3        1 MOL1        -0.1409
      12    H8      20.819008   20.805660   23.576248 H          1 MOL1         0.0960
      13    H9      21.907359   20.283268   22.310312 H          1 MOL1         0.0960
      14    C5      21.470096   18.735612   23.766717 C.3        1 MOL1        -0.1409
      15    H10     21.866082   17.948791   23.111030 H          1 MOL1         0.0960
      16    H11     22.308851   19.032158   24.411619 H          1 MOL1         0.0960
      17    C6      20.346371   18.140402   24.650863 C.3        1 MOL1        -0.1450
      18    H12     20.754902   17.297191   25.223438 H          1 MOL1         0.0960
      19    H13     19.550426   17.726558   24.018643 H          1 MOL1         0.0960
      20    C7      19.750729   19.171200   25.627572 C.3        1 MOL1         0.0172
      21    H14     20.541966   19.572395   26.266562 H          1 MOL1         0.0934
      22    H15     19.308566   19.998399   25.066177 H          1 MOL1         0.0934
      23    N1      18.675994   18.588772   26.522492 N.4        1 MOL1        -0.5956
      24    H16     19.034692   17.821297   27.099956 H          1 MOL1         0.3624
      25    H17     17.888250   18.217141   25.981793 H          1 MOL1         0.3624
      26    H18     18.292971   19.291262   27.164453 H          1 MOL1         0.3624
@<TRIPOS>BOND
    1     1     2    1
    2     1     3    1
    3     1     4    1
    4     1     5    1
    5     5     6    1
    6     5     7    1
    7     5     8    1
    8     8     9    1
    9     8    10    1
   10     8    11    1
   11    11    12    1
   12    11    13    1
   13    11    14    1
   14    14    15    1
   15    14    16    1
   16    14    17    1
   17    17    18    1
   18    17    19    1
   19    17    20    1
   20    20    21    1
   21    20    22    1
   22    20    23    1
   23    23    24    1
   24    23    25    1
   25    23    26    1
@<TRIPOS>SUBSTRUCTURE
       1 MOL1            1 RESIDUE      1      MOL     
@<SCITEGIC>MOL_PROPERTY
VM2 Rank
SciTegic.value.IntegerValue
70

@<SCITEGIC>MOL_PROPERTY
Conf_Id
SciTegic.value.IntegerValue
494

@<SCITEGIC>MOL_PROPERTY
Probability
SciTegic.value.DoubleValue
0.42

@<SCITEGIC>MOL_PROPERTY
Sum Probability
SciTegic.value.DoubleValue
91.96

@<SCITEGIC>MOL_PROPERTY
Delta G
SciTegic.value.DoubleValue
1.702

@<SCITEGIC>MOL_PROPERTY
G
SciTegic.value.DoubleValue
49.963

@<SCITEGIC>MOL_PROPERTY
E
SciTegic.value.DoubleValue
16.925

@<SCITEGIC>MOL_PROPERTY
-TS
SciTegic.value.DoubleValue
33.038

@<SCITEGIC>MOL_PROPERTY
U+W
SciTegic.value.DoubleValue
-4.536

@<SCITEGIC>MOL_PROPERTY
U
SciTegic.value.DoubleValue
49.453

@<SCITEGIC>MOL_PROPERTY
W
SciTegic.value.DoubleValue
-53.990

@<SCITEGIC>MOL_PROPERTY
W(PB)
SciTegic.value.DoubleValue
-56.276

@<SCITEGIC>MOL_PROPERTY
W(SA)
SciTegic.value.DoubleValue
2.286

@<SCITEGIC>MOL_PROPERTY
Valence
SciTegic.value.DoubleValue
3.376

@<SCITEGIC>MOL_PROPERTY
Coulomb
SciTegic.value.DoubleValue
45.559

@<SCITEGIC>MOL_PROPERTY
VdW
SciTegic.value.DoubleValue
0.518

@<SCITEGIC>MOL_PROPERTY
VdW6
SciTegic.value.DoubleValue
-8.348

@<SCITEGIC>MOL_PROPERTY
VdW12
SciTegic.value.DoubleValue
8.866

@<SCITEGIC>MOL_PROPERTY
Bond
SciTegic.value.DoubleValue
0.240

@<SCITEGIC>MOL_PROPERTY
Angle
SciTegic.value.DoubleValue
1.236

@<SCITEGIC>MOL_PROPERTY
Pdih
SciTegic.value.DoubleValue
1.900

@<SCITEGIC>MOL_PROPERTY
Idih
SciTegic.value.DoubleValue
0.000

@<SCITEGIC>MOL_PROPERTY
Tether
SciTegic.value.DoubleValue
0.000

@<TRIPOS>MOLECULE
guest-s14_vm2.mol2 : vm2 ligand conformer 71
          26          25           1
SMALL
USER_CHARGES
 
@<TRIPOS>ATOM
       1    C1      18.734675   18.646571   20.012790 C.3        1 MOL1        -0.2400
       2    H1      19.274138   18.996616   19.123041 H          1 MOL1         0.0971
       3    H2      18.176914   17.742981   19.734521 H          1 MOL1         0.0971
       4    H3      18.006945   19.417819   20.297018 H          1 MOL1         0.0971
       5    C2      19.709268   18.349896   21.172158 C.3        1 MOL1        -0.1385
       6    H4      20.405131   17.555037   20.869489 H          1 MOL1         0.0960
       7    H5      19.138197   17.965418   22.027603 H          1 MOL1         0.0960
       8    C3      20.504603   19.610617   21.585359 C.3        1 MOL1        -0.1409
       9    H6      21.006851   20.021586   20.698755 H          1 MOL1         0.0960
      10    H7      19.812093   20.391160   21.927034 H          1 MOL1         0.0960
      11    C4      21.578007   19.340195   22.671378 C.3        1 MOL1        -0.1409
      12    H8      22.114533   20.276630   22.877323 H          1 MOL1         0.0960
      13    H9      22.328486   18.647974   22.265407 H          1 MOL1         0.0960
      14    C5      21.040618   18.764700   24.007179 C.3        1 MOL1        -0.1409
      15    H10     20.615176   17.767740   23.835849 H          1 MOL1         0.0960
      16    H11     21.891239   18.617722   24.687112 H          1 MOL1         0.0960
      17    C6      19.997978   19.678820   24.697488 C.3        1 MOL1        -0.1450
      18    H12     19.093558   19.761740   24.081451 H          1 MOL1         0.0960
      19    H13     20.409288   20.692505   24.792248 H          1 MOL1         0.0960
      20    C7      19.607602   19.176691   26.100755 C.3        1 MOL1         0.0172
      21    H14     20.502432   19.090663   26.723057 H          1 MOL1         0.0934
      22    H15     18.933870   19.898655   26.570209 H          1 MOL1         0.0934
      23    N1      18.908248   17.831511   26.093892 N.4        1 MOL1        -0.5956
      24    H16     18.652226   17.531234   27.040779 H          1 MOL1         0.3624
      25    H17     19.502349   17.097200   25.696804 H          1 MOL1         0.3624
      26    H18     18.043967   17.854538   25.543140 H          1 MOL1         0.3624
@<TRIPOS>BOND
    1     1     2    1
    2     1     3    1
    3     1     4    1
    4     1     5    1
    5     5     6    1
    6     5     7    1
    7     5     8    1
    8     8     9    1
    9     8    10    1
   10     8    11    1
   11    11    12    1
   12    11    13    1
   13    11    14    1
   14    14    15    1
   15    14    16    1
   16    14    17    1
   17    17    18    1
   18    17    19    1
   19    17    20    1
   20    20    21    1
   21    20    22    1
   22    20    23    1
   23    23    24    1
   24    23    25    1
   25    23    26    1
@<TRIPOS>SUBSTRUCTURE
       1 MOL1            1 RESIDUE      1      MOL     
@<SCITEGIC>MOL_PROPERTY
VM2 Rank
SciTegic.value.IntegerValue
71

@<SCITEGIC>MOL_PROPERTY
Conf_Id
SciTegic.value.IntegerValue
1612

@<SCITEGIC>MOL_PROPERTY
Probability
SciTegic.value.DoubleValue
0.41

@<SCITEGIC>MOL_PROPERTY
Sum Probability
SciTegic.value.DoubleValue
92.37

@<SCITEGIC>MOL_PROPERTY
Delta G
SciTegic.value.DoubleValue
1.713

@<SCITEGIC>MOL_PROPERTY
G
SciTegic.value.DoubleValue
49.974

@<SCITEGIC>MOL_PROPERTY
E
SciTegic.value.DoubleValue
17.069

@<SCITEGIC>MOL_PROPERTY
-TS
SciTegic.value.DoubleValue
32.905

@<SCITEGIC>MOL_PROPERTY
U+W
SciTegic.value.DoubleValue
-4.393

@<SCITEGIC>MOL_PROPERTY
U
SciTegic.value.DoubleValue
49.677

@<SCITEGIC>MOL_PROPERTY
W
SciTegic.value.DoubleValue
-54.070

@<SCITEGIC>MOL_PROPERTY
W(PB)
SciTegic.value.DoubleValue
-56.334

@<SCITEGIC>MOL_PROPERTY
W(SA)
SciTegic.value.DoubleValue
2.263

@<SCITEGIC>MOL_PROPERTY
Valence
SciTegic.value.DoubleValue
3.238

@<SCITEGIC>MOL_PROPERTY
Coulomb
SciTegic.value.DoubleValue
45.760

@<SCITEGIC>MOL_PROPERTY
VdW
SciTegic.value.DoubleValue
0.679

@<SCITEGIC>MOL_PROPERTY
VdW6
SciTegic.value.DoubleValue
-8.038

@<SCITEGIC>MOL_PROPERTY
VdW12
SciTegic.value.DoubleValue
8.717

@<SCITEGIC>MOL_PROPERTY
Bond
SciTegic.value.DoubleValue
0.233

@<SCITEGIC>MOL_PROPERTY
Angle
SciTegic.value.DoubleValue
1.079

@<SCITEGIC>MOL_PROPERTY
Pdih
SciTegic.value.DoubleValue
1.925

@<SCITEGIC>MOL_PROPERTY
Idih
SciTegic.value.DoubleValue
0.000

@<SCITEGIC>MOL_PROPERTY
Tether
SciTegic.value.DoubleValue
0.000

@<TRIPOS>MOLECULE
guest-s14_vm2.mol2 : vm2 ligand conformer 72
          26          25           1
SMALL
USER_CHARGES
 
@<TRIPOS>ATOM
       1    C1      19.251914   20.270269   20.629811 C.3        1 MOL1        -0.2400
       2    H1      20.058230   20.946153   20.316798 H          1 MOL1         0.0971
       3    H2      18.377857   20.474394   19.997989 H          1 MOL1         0.0971
       4    H3      18.977334   20.516974   21.662972 H          1 MOL1         0.0971
       5    C2      19.683095   18.792210   20.496251 C.3        1 MOL1        -0.1385
       6    H4      19.831300   18.561816   19.432004 H          1 MOL1         0.0960
       7    H5      18.869329   18.136864   20.834455 H          1 MOL1         0.0960
       8    C3      20.990806   18.459966   21.259264 C.3        1 MOL1        -0.1409
       9    H6      21.241850   17.404094   21.088228 H          1 MOL1         0.0960
      10    H7      21.814746   19.039375   20.820463 H          1 MOL1         0.0960
      11    C4      20.952096   18.728385   22.785827 C.3        1 MOL1        -0.1409
      12    H8      20.817856   19.802460   22.966977 H          1 MOL1         0.0960
      13    H9      21.933748   18.470735   23.206641 H          1 MOL1         0.0960
      14    C5      19.857717   17.919037   23.526239 C.3        1 MOL1        -0.1409
      15    H10     18.861801   18.233262   23.186697 H          1 MOL1         0.0960
      16    H11     19.956104   16.856120   23.266156 H          1 MOL1         0.0960
      17    C6      19.935525   18.064611   25.064004 C.3        1 MOL1        -0.1450
      18    H12     20.917095   17.722724   25.418388 H          1 MOL1         0.0960
      19    H13     19.187913   17.404118   25.523062 H          1 MOL1         0.0960
      20    C7      19.688708   19.509785   25.535950 C.3        1 MOL1         0.0172
      21    H14     20.452834   20.170844   25.119017 H          1 MOL1         0.0934
      22    H15     18.710471   19.849305   25.185006 H          1 MOL1         0.0934
      23    N1      19.721139   19.654737   27.043655 N.4        1 MOL1        -0.5956
      24    H16     20.626824   19.375716   27.434888 H          1 MOL1         0.3624
      25    H17     19.005572   19.078214   27.498375 H          1 MOL1         0.3624
      26    H18     19.554721   20.623527   27.337095 H          1 MOL1         0.3624
@<TRIPOS>BOND
    1     1     2    1
    2     1     3    1
    3     1     4    1
    4     1     5    1
    5     5     6    1
    6     5     7    1
    7     5     8    1
    8     8     9    1
    9     8    10    1
   10     8    11    1
   11    11    12    1
   12    11    13    1
   13    11    14    1
   14    14    15    1
   15    14    16    1
   16    14    17    1
   17    17    18    1
   18    17    19    1
   19    17    20    1
   20    20    21    1
   21    20    22    1
   22    20    23    1
   23    23    24    1
   24    23    25    1
   25    23    26    1
@<TRIPOS>SUBSTRUCTURE
       1 MOL1            1 RESIDUE      1      MOL     
@<SCITEGIC>MOL_PROPERTY
VM2 Rank
SciTegic.value.IntegerValue
72

@<SCITEGIC>MOL_PROPERTY
Conf_Id
SciTegic.value.IntegerValue
523

@<SCITEGIC>MOL_PROPERTY
Probability
SciTegic.value.DoubleValue
0.41

@<SCITEGIC>MOL_PROPERTY
Sum Probability
SciTegic.value.DoubleValue
92.78

@<SCITEGIC>MOL_PROPERTY
Delta G
SciTegic.value.DoubleValue
1.716

@<SCITEGIC>MOL_PROPERTY
G
SciTegic.value.DoubleValue
49.977

@<SCITEGIC>MOL_PROPERTY
E
SciTegic.value.DoubleValue
17.088

@<SCITEGIC>MOL_PROPERTY
-TS
SciTegic.value.DoubleValue
32.889

@<SCITEGIC>MOL_PROPERTY
U+W
SciTegic.value.DoubleValue
-4.374

@<SCITEGIC>MOL_PROPERTY
U
SciTegic.value.DoubleValue
49.255

@<SCITEGIC>MOL_PROPERTY
W
SciTegic.value.DoubleValue
-53.629

@<SCITEGIC>MOL_PROPERTY
W(PB)
SciTegic.value.DoubleValue
-55.893

@<SCITEGIC>MOL_PROPERTY
W(SA)
SciTegic.value.DoubleValue
2.264

@<SCITEGIC>MOL_PROPERTY
Valence
SciTegic.value.DoubleValue
3.394

@<SCITEGIC>MOL_PROPERTY
Coulomb
SciTegic.value.DoubleValue
45.181

@<SCITEGIC>MOL_PROPERTY
VdW
SciTegic.value.DoubleValue
0.680

@<SCITEGIC>MOL_PROPERTY
VdW6
SciTegic.value.DoubleValue
-8.024

@<SCITEGIC>MOL_PROPERTY
VdW12
SciTegic.value.DoubleValue
8.705

@<SCITEGIC>MOL_PROPERTY
Bond
SciTegic.value.DoubleValue
0.231

@<SCITEGIC>MOL_PROPERTY
Angle
SciTegic.value.DoubleValue
1.123

@<SCITEGIC>MOL_PROPERTY
Pdih
SciTegic.value.DoubleValue
2.041

@<SCITEGIC>MOL_PROPERTY
Idih
SciTegic.value.DoubleValue
0.000

@<SCITEGIC>MOL_PROPERTY
Tether
SciTegic.value.DoubleValue
0.000

@<TRIPOS>MOLECULE
guest-s14_vm2.mol2 : vm2 ligand conformer 73
          26          25           1
SMALL
USER_CHARGES
 
@<TRIPOS>ATOM
       1    C1      20.661036   18.470640   19.495824 C.3        1 MOL1        -0.2400
       2    H1      20.793689   19.493690   19.120307 H          1 MOL1         0.0971
       3    H2      21.528521   17.878977   19.175771 H          1 MOL1         0.0971
       4    H3      19.768537   18.044485   19.019316 H          1 MOL1         0.0971
       5    C2      20.529627   18.457292   21.033595 C.3        1 MOL1        -0.1385
       6    H4      21.455184   18.851971   21.473179 H          1 MOL1         0.0960
       7    H5      20.427981   17.419715   21.381058 H          1 MOL1         0.0960
       8    C3      19.314934   19.289041   21.508933 C.3        1 MOL1        -0.1409
       9    H6      19.441425   20.337151   21.204462 H          1 MOL1         0.0960
      10    H7      18.412352   18.926786   20.997611 H          1 MOL1         0.0960
      11    C4      19.075242   19.217133   23.036895 C.3        1 MOL1        -0.1409
      12    H8      18.928972   18.169044   23.330331 H          1 MOL1         0.0960
      13    H9      18.134449   19.736469   23.265914 H          1 MOL1         0.0960
      14    C5      20.216792   19.851927   23.870746 C.3        1 MOL1        -0.1409
      15    H10     21.148051   19.289086   23.729623 H          1 MOL1         0.0960
      16    H11     20.412648   20.867251   23.499394 H          1 MOL1         0.0960
      17    C6      19.888359   19.934734   25.382517 C.3        1 MOL1        -0.1450
      18    H12     19.011611   20.579757   25.527819 H          1 MOL1         0.0960
      19    H13     20.718682   20.424304   25.908527 H          1 MOL1         0.0960
      20    C7      19.610329   18.567256   26.039106 C.3        1 MOL1         0.0172
      21    H14     19.359908   18.714942   27.093132 H          1 MOL1         0.0934
      22    H15     18.756655   18.089673   25.551393 H          1 MOL1         0.0934
      23    N1      20.784680   17.610978   25.973384 N.4        1 MOL1        -0.5956
      24    H16     20.571711   16.714428   26.423991 H          1 MOL1         0.3624
      25    H17     21.612528   17.992858   26.442171 H          1 MOL1         0.3624
      26    H18     21.050870   17.406588   25.005278 H          1 MOL1         0.3624
@<TRIPOS>BOND
    1     1     2    1
    2     1     3    1
    3     1     4    1
    4     1     5    1
    5     5     6    1
    6     5     7    1
    7     5     8    1
    8     8     9    1
    9     8    10    1
   10     8    11    1
   11    11    12    1
   12    11    13    1
   13    11    14    1
   14    14    15    1
   15    14    16    1
   16    14    17    1
   17    17    18    1
   18    17    19    1
   19    17    20    1
   20    20    21    1
   21    20    22    1
   22    20    23    1
   23    23    24    1
   24    23    25    1
   25    23    26    1
@<TRIPOS>SUBSTRUCTURE
       1 MOL1            1 RESIDUE      1      MOL     
@<SCITEGIC>MOL_PROPERTY
VM2 Rank
SciTegic.value.IntegerValue
73

@<SCITEGIC>MOL_PROPERTY
Conf_Id
SciTegic.value.IntegerValue
1307

@<SCITEGIC>MOL_PROPERTY
Probability
SciTegic.value.DoubleValue
0.41

@<SCITEGIC>MOL_PROPERTY
Sum Probability
SciTegic.value.DoubleValue
93.19

@<SCITEGIC>MOL_PROPERTY
Delta G
SciTegic.value.DoubleValue
1.717

@<SCITEGIC>MOL_PROPERTY
G
SciTegic.value.DoubleValue
49.979

@<SCITEGIC>MOL_PROPERTY
E
SciTegic.value.DoubleValue
17.228

@<SCITEGIC>MOL_PROPERTY
-TS
SciTegic.value.DoubleValue
32.751

@<SCITEGIC>MOL_PROPERTY
U+W
SciTegic.value.DoubleValue
-4.234

@<SCITEGIC>MOL_PROPERTY
U
SciTegic.value.DoubleValue
49.692

@<SCITEGIC>MOL_PROPERTY
W
SciTegic.value.DoubleValue
-53.926

@<SCITEGIC>MOL_PROPERTY
W(PB)
SciTegic.value.DoubleValue
-56.219

@<SCITEGIC>MOL_PROPERTY
W(SA)
SciTegic.value.DoubleValue
2.294

@<SCITEGIC>MOL_PROPERTY
Valence
SciTegic.value.DoubleValue
3.067

@<SCITEGIC>MOL_PROPERTY
Coulomb
SciTegic.value.DoubleValue
45.912

@<SCITEGIC>MOL_PROPERTY
VdW
SciTegic.value.DoubleValue
0.713

@<SCITEGIC>MOL_PROPERTY
VdW6
SciTegic.value.DoubleValue
-7.810

@<SCITEGIC>MOL_PROPERTY
VdW12
SciTegic.value.DoubleValue
8.523

@<SCITEGIC>MOL_PROPERTY
Bond
SciTegic.value.DoubleValue
0.215

@<SCITEGIC>MOL_PROPERTY
Angle
SciTegic.value.DoubleValue
0.854

@<SCITEGIC>MOL_PROPERTY
Pdih
SciTegic.value.DoubleValue
1.997

@<SCITEGIC>MOL_PROPERTY
Idih
SciTegic.value.DoubleValue
0.000

@<SCITEGIC>MOL_PROPERTY
Tether
SciTegic.value.DoubleValue
0.000

@<TRIPOS>MOLECULE
guest-s14_vm2.mol2 : vm2 ligand conformer 74
          26          25           1
SMALL
USER_CHARGES
 
@<TRIPOS>ATOM
       1    C1      21.021677   19.885433   20.028290 C.3        1 MOL1        -0.2400
       2    H1      20.251968   20.412497   19.449540 H          1 MOL1         0.0971
       3    H2      21.577195   20.628575   20.615091 H          1 MOL1         0.0971
       4    H3      21.720978   19.425493   19.318049 H          1 MOL1         0.0971
       5    C2      20.391843   18.814446   20.943855 C.3        1 MOL1        -0.1385
       6    H4      21.192985   18.283232   21.474715 H          1 MOL1         0.0960
       7    H5      19.869202   18.069471   20.327828 H          1 MOL1         0.0960
       8    C3      19.403976   19.439586   21.956671 C.3        1 MOL1        -0.1409
       9    H6      19.932343   20.160043   22.594883 H          1 MOL1         0.0960
      10    H7      18.650205   20.020166   21.407183 H          1 MOL1         0.0960
      11    C4      18.669632   18.392128   22.832809 C.3        1 MOL1        -0.1409
      12    H8      18.063955   17.746734   22.181821 H          1 MOL1         0.0960
      13    H9      17.951832   18.913381   23.480416 H          1 MOL1         0.0960
      14    C5      19.589503   17.494440   23.703861 C.3        1 MOL1        -0.1409
      15    H10     18.958144   16.820758   24.299585 H          1 MOL1         0.0960
      16    H11     20.187649   16.841042   23.054928 H          1 MOL1         0.0960
      17    C6      20.535801   18.265362   24.657246 C.3        1 MOL1        -0.1450
      18    H12     21.257577   18.853098   24.075779 H          1 MOL1         0.0960
      19    H13     21.123611   17.540489   25.235851 H          1 MOL1         0.0960
      20    C7      19.776857   19.188439   25.628446 C.3        1 MOL1         0.0172
      21    H14     19.216358   19.937504   25.063050 H          1 MOL1         0.0934
      22    H15     19.068291   18.599832   26.217344 H          1 MOL1         0.0934
      23    N1      20.691710   19.919167   26.589821 N.4        1 MOL1        -0.5956
      24    H16     21.229332   19.269814   27.173298 H          1 MOL1         0.3624
      25    H17     20.166598   20.527912   27.227004 H          1 MOL1         0.3624
      26    H18     21.367158   20.513206   26.097991 H          1 MOL1         0.3624
@<TRIPOS>BOND
    1     1     2    1
    2     1     3    1
    3     1     4    1
    4     1     5    1
    5     5     6    1
    6     5     7    1
    7     5     8    1
    8     8     9    1
    9     8    10    1
   10     8    11    1
   11    11    12    1
   12    11    13    1
   13    11    14    1
   14    14    15    1
   15    14    16    1
   16    14    17    1
   17    17    18    1
   18    17    19    1
   19    17    20    1
   20    20    21    1
   21    20    22    1
   22    20    23    1
   23    23    24    1
   24    23    25    1
   25    23    26    1
@<TRIPOS>SUBSTRUCTURE
       1 MOL1            1 RESIDUE      1      MOL     
@<SCITEGIC>MOL_PROPERTY
VM2 Rank
SciTegic.value.IntegerValue
74

@<SCITEGIC>MOL_PROPERTY
Conf_Id
SciTegic.value.IntegerValue
286

@<SCITEGIC>MOL_PROPERTY
Probability
SciTegic.value.DoubleValue
0.39

@<SCITEGIC>MOL_PROPERTY
Sum Probability
SciTegic.value.DoubleValue
93.58

@<SCITEGIC>MOL_PROPERTY
Delta G
SciTegic.value.DoubleValue
1.738

@<SCITEGIC>MOL_PROPERTY
G
SciTegic.value.DoubleValue
49.999

@<SCITEGIC>MOL_PROPERTY
E
SciTegic.value.DoubleValue
16.961

@<SCITEGIC>MOL_PROPERTY
-TS
SciTegic.value.DoubleValue
33.038

@<SCITEGIC>MOL_PROPERTY
U+W
SciTegic.value.DoubleValue
-4.500

@<SCITEGIC>MOL_PROPERTY
U
SciTegic.value.DoubleValue
49.453

@<SCITEGIC>MOL_PROPERTY
W
SciTegic.value.DoubleValue
-53.954

@<SCITEGIC>MOL_PROPERTY
W(PB)
SciTegic.value.DoubleValue
-56.228

@<SCITEGIC>MOL_PROPERTY
W(SA)
SciTegic.value.DoubleValue
2.274

@<SCITEGIC>MOL_PROPERTY
Valence
SciTegic.value.DoubleValue
3.376

@<SCITEGIC>MOL_PROPERTY
Coulomb
SciTegic.value.DoubleValue
45.559

@<SCITEGIC>MOL_PROPERTY
VdW
SciTegic.value.DoubleValue
0.518

@<SCITEGIC>MOL_PROPERTY
VdW6
SciTegic.value.DoubleValue
-8.348

@<SCITEGIC>MOL_PROPERTY
VdW12
SciTegic.value.DoubleValue
8.866

@<SCITEGIC>MOL_PROPERTY
Bond
SciTegic.value.DoubleValue
0.240

@<SCITEGIC>MOL_PROPERTY
Angle
SciTegic.value.DoubleValue
1.237

@<SCITEGIC>MOL_PROPERTY
Pdih
SciTegic.value.DoubleValue
1.900

@<SCITEGIC>MOL_PROPERTY
Idih
SciTegic.value.DoubleValue
0.000

@<SCITEGIC>MOL_PROPERTY
Tether
SciTegic.value.DoubleValue
0.000

@<TRIPOS>MOLECULE
guest-s14_vm2.mol2 : vm2 ligand conformer 75
          26          25           1
SMALL
USER_CHARGES
 
@<TRIPOS>ATOM
       1    C1      19.194748   20.232539   20.627910 C.3        1 MOL1        -0.2400
       2    H1      19.378956   21.135425   20.031500 H          1 MOL1         0.0971
       3    H2      18.272415   19.767019   20.257057 H          1 MOL1         0.0971
       4    H3      19.027490   20.550103   21.664664 H          1 MOL1         0.0971
       5    C2      20.390289   19.259178   20.519917 C.3        1 MOL1        -0.1385
       6    H4      21.295497   19.738841   20.915640 H          1 MOL1         0.0960
       7    H5      20.593505   19.065118   19.457509 H          1 MOL1         0.0960
       8    C3      20.147837   17.903378   21.231049 C.3        1 MOL1        -0.1409
       9    H6      19.313102   17.387603   20.736752 H          1 MOL1         0.0960
      10    H7      21.027721   17.262721   21.081040 H          1 MOL1         0.0960
      11    C4      19.845276   17.997555   22.748788 C.3        1 MOL1        -0.1409
      12    H8      19.677925   16.981237   23.131147 H          1 MOL1         0.0960
      13    H9      18.902446   18.537732   22.902905 H          1 MOL1         0.0960
      14    C5      20.983204   18.662129   23.563881 C.3        1 MOL1        -0.1409
      15    H10     21.933491   18.161696   23.332292 H          1 MOL1         0.0960
      16    H11     21.100388   19.711297   23.261579 H          1 MOL1         0.0960
      17    C6      20.747365   18.600602   25.091153 C.3        1 MOL1        -0.1450
      18    H12     21.625816   19.013631   25.604608 H          1 MOL1         0.0960
      19    H13     20.660433   17.553284   25.409778 H          1 MOL1         0.0960
      20    C7      19.494174   19.381363   25.529453 C.3        1 MOL1         0.0172
      21    H14     19.581811   20.424575   25.214158 H          1 MOL1         0.0934
      22    H15     18.606761   18.952083   25.057290 H          1 MOL1         0.0934
      23    N1      19.278108   19.362256   27.028849 N.4        1 MOL1        -0.5956
      24    H16     18.439441   19.887206   27.299811 H          1 MOL1         0.3624
      25    H17     20.067040   19.779058   27.533869 H          1 MOL1         0.3624
      26    H18     19.161478   18.408271   27.385910 H          1 MOL1         0.3624
@<TRIPOS>BOND
    1     1     2    1
    2     1     3    1
    3     1     4    1
    4     1     5    1
    5     5     6    1
    6     5     7    1
    7     5     8    1
    8     8     9    1
    9     8    10    1
   10     8    11    1
   11    11    12    1
   12    11    13    1
   13    11    14    1
   14    14    15    1
   15    14    16    1
   16    14    17    1
   17    17    18    1
   18    17    19    1
   19    17    20    1
   20    20    21    1
   21    20    22    1
   22    20    23    1
   23    23    24    1
   24    23    25    1
   25    23    26    1
@<TRIPOS>SUBSTRUCTURE
       1 MOL1            1 RESIDUE      1      MOL     
@<SCITEGIC>MOL_PROPERTY
VM2 Rank
SciTegic.value.IntegerValue
75

@<SCITEGIC>MOL_PROPERTY
Conf_Id
SciTegic.value.IntegerValue
1108

@<SCITEGIC>MOL_PROPERTY
Probability
SciTegic.value.DoubleValue
0.38

@<SCITEGIC>MOL_PROPERTY
Sum Probability
SciTegic.value.DoubleValue
93.97

@<SCITEGIC>MOL_PROPERTY
Delta G
SciTegic.value.DoubleValue
1.754

@<SCITEGIC>MOL_PROPERTY
G
SciTegic.value.DoubleValue
50.015

@<SCITEGIC>MOL_PROPERTY
E
SciTegic.value.DoubleValue
17.126

@<SCITEGIC>MOL_PROPERTY
-TS
SciTegic.value.DoubleValue
32.889

@<SCITEGIC>MOL_PROPERTY
U+W
SciTegic.value.DoubleValue
-4.336

@<SCITEGIC>MOL_PROPERTY
U
SciTegic.value.DoubleValue
49.255

@<SCITEGIC>MOL_PROPERTY
W
SciTegic.value.DoubleValue
-53.591

@<SCITEGIC>MOL_PROPERTY
W(PB)
SciTegic.value.DoubleValue
-55.889

@<SCITEGIC>MOL_PROPERTY
W(SA)
SciTegic.value.DoubleValue
2.298

@<SCITEGIC>MOL_PROPERTY
Valence
SciTegic.value.DoubleValue
3.394

@<SCITEGIC>MOL_PROPERTY
Coulomb
SciTegic.value.DoubleValue
45.181

@<SCITEGIC>MOL_PROPERTY
VdW
SciTegic.value.DoubleValue
0.680

@<SCITEGIC>MOL_PROPERTY
VdW6
SciTegic.value.DoubleValue
-8.024

@<SCITEGIC>MOL_PROPERTY
VdW12
SciTegic.value.DoubleValue
8.704

@<SCITEGIC>MOL_PROPERTY
Bond
SciTegic.value.DoubleValue
0.231

@<SCITEGIC>MOL_PROPERTY
Angle
SciTegic.value.DoubleValue
1.123

@<SCITEGIC>MOL_PROPERTY
Pdih
SciTegic.value.DoubleValue
2.041

@<SCITEGIC>MOL_PROPERTY
Idih
SciTegic.value.DoubleValue
0.000

@<SCITEGIC>MOL_PROPERTY
Tether
SciTegic.value.DoubleValue
0.000

@<TRIPOS>MOLECULE
guest-s14_vm2.mol2 : vm2 ligand conformer 76
          26          25           1
SMALL
USER_CHARGES
 
@<TRIPOS>ATOM
       1    C1      20.927701   18.341119   20.034145 C.3        1 MOL1        -0.2400
       2    H1      21.355536   17.794950   20.884064 H          1 MOL1         0.0971
       3    H2      20.843283   17.636062   19.197117 H          1 MOL1         0.0971
       4    H3      21.633383   19.128919   19.740324 H          1 MOL1         0.0971
       5    C2      19.544627   18.936173   20.382379 C.3        1 MOL1        -0.1385
       6    H4      18.862785   18.133176   20.692474 H          1 MOL1         0.0960
       7    H5      19.105555   19.366391   19.471441 H          1 MOL1         0.0960
       8    C3      19.603691   20.040059   21.469091 C.3        1 MOL1        -0.1409
       9    H6      20.185171   20.887498   21.080656 H          1 MOL1         0.0960
      10    H7      18.588586   20.425069   21.637826 H          1 MOL1         0.0960
      11    C4      20.209948   19.604843   22.828532 C.3        1 MOL1        -0.1409
      12    H8      20.220963   20.481872   23.488813 H          1 MOL1         0.0960
      13    H9      21.260549   19.315507   22.693915 H          1 MOL1         0.0960
      14    C5      19.432143   18.452082   23.512660 C.3        1 MOL1        -0.1409
      15    H10     18.377224   18.735347   23.631868 H          1 MOL1         0.0960
      16    H11     19.446191   17.564887   22.866334 H          1 MOL1         0.0960
      17    C6      20.019327   18.056606   24.888061 C.3        1 MOL1        -0.1450
      18    H12     21.071352   17.764557   24.770033 H          1 MOL1         0.0960
      19    H13     19.487198   17.171031   25.260253 H          1 MOL1         0.0960
      20    C7      19.907714   19.183890   25.931768 C.3        1 MOL1         0.0172
      21    H14     20.473120   20.057085   25.596597 H          1 MOL1         0.0934
      22    H15     18.860316   19.475171   26.047915 H          1 MOL1         0.0934
      23    N1      20.435849   18.784228   27.294364 N.4        1 MOL1        -0.5956
      24    H16     20.352417   19.547799   27.974348 H          1 MOL1         0.3624
      25    H17     21.426711   18.523276   27.258629 H          1 MOL1         0.3624
      26    H18     19.926545   17.983064   27.681585 H          1 MOL1         0.3624
@<TRIPOS>BOND
    1     1     2    1
    2     1     3    1
    3     1     4    1
    4     1     5    1
    5     5     6    1
    6     5     7    1
    7     5     8    1
    8     8     9    1
    9     8    10    1
   10     8    11    1
   11    11    12    1
   12    11    13    1
   13    11    14    1
   14    14    15    1
   15    14    16    1
   16    14    17    1
   17    17    18    1
   18    17    19    1
   19    17    20    1
   20    20    21    1
   21    20    22    1
   22    20    23    1
   23    23    24    1
   24    23    25    1
   25    23    26    1
@<TRIPOS>SUBSTRUCTURE
       1 MOL1            1 RESIDUE      1      MOL     
@<SCITEGIC>MOL_PROPERTY
VM2 Rank
SciTegic.value.IntegerValue
76

@<SCITEGIC>MOL_PROPERTY
Conf_Id
SciTegic.value.IntegerValue
1227

@<SCITEGIC>MOL_PROPERTY
Probability
SciTegic.value.DoubleValue
0.37

@<SCITEGIC>MOL_PROPERTY
Sum Probability
SciTegic.value.DoubleValue
94.33

@<SCITEGIC>MOL_PROPERTY
Delta G
SciTegic.value.DoubleValue
1.782

@<SCITEGIC>MOL_PROPERTY
G
SciTegic.value.DoubleValue
50.043

@<SCITEGIC>MOL_PROPERTY
E
SciTegic.value.DoubleValue
17.176

@<SCITEGIC>MOL_PROPERTY
-TS
SciTegic.value.DoubleValue
32.867

@<SCITEGIC>MOL_PROPERTY
U+W
SciTegic.value.DoubleValue
-4.286

@<SCITEGIC>MOL_PROPERTY
U
SciTegic.value.DoubleValue
49.209

@<SCITEGIC>MOL_PROPERTY
W
SciTegic.value.DoubleValue
-53.495

@<SCITEGIC>MOL_PROPERTY
W(PB)
SciTegic.value.DoubleValue
-55.781

@<SCITEGIC>MOL_PROPERTY
W(SA)
SciTegic.value.DoubleValue
2.286

@<SCITEGIC>MOL_PROPERTY
Valence
SciTegic.value.DoubleValue
3.465

@<SCITEGIC>MOL_PROPERTY
Coulomb
SciTegic.value.DoubleValue
44.958

@<SCITEGIC>MOL_PROPERTY
VdW
SciTegic.value.DoubleValue
0.786

@<SCITEGIC>MOL_PROPERTY
VdW6
SciTegic.value.DoubleValue
-7.903

@<SCITEGIC>MOL_PROPERTY
VdW12
SciTegic.value.DoubleValue
8.689

@<SCITEGIC>MOL_PROPERTY
Bond
SciTegic.value.DoubleValue
0.237

@<SCITEGIC>MOL_PROPERTY
Angle
SciTegic.value.DoubleValue
1.212

@<SCITEGIC>MOL_PROPERTY
Pdih
SciTegic.value.DoubleValue
2.015

@<SCITEGIC>MOL_PROPERTY
Idih
SciTegic.value.DoubleValue
0.000

@<SCITEGIC>MOL_PROPERTY
Tether
SciTegic.value.DoubleValue
0.000

@<TRIPOS>MOLECULE
guest-s14_vm2.mol2 : vm2 ligand conformer 77
          26          25           1
SMALL
USER_CHARGES
 
@<TRIPOS>ATOM
       1    C1      20.337397   17.951726   20.014611 C.3        1 MOL1        -0.2400
       2    H1      19.350260   17.623256   19.664448 H          1 MOL1         0.0971
       3    H2      21.056926   17.776758   19.204358 H          1 MOL1         0.0971
       4    H3      20.631541   17.317440   20.860109 H          1 MOL1         0.0971
       5    C2      20.318044   19.446041   20.408183 C.3        1 MOL1        -0.1385
       6    H4      20.137777   20.046798   19.505812 H          1 MOL1         0.0960
       7    H5      21.308983   19.746087   20.774087 H          1 MOL1         0.0960
       8    C3      19.230472   19.793995   21.456568 C.3        1 MOL1        -0.1409
       9    H6      19.267858   20.872983   21.660356 H          1 MOL1         0.0960
      10    H7      18.241789   19.606108   21.015703 H          1 MOL1         0.0960
      11    C4      19.328730   19.023948   22.799106 C.3        1 MOL1        -0.1409
      12    H8      19.187991   17.949052   22.624776 H          1 MOL1         0.0960
      13    H9      18.488188   19.339538   23.430901 H          1 MOL1         0.0960
      14    C5      20.661165   19.262710   23.553741 C.3        1 MOL1        -0.1409
      15    H10     21.500572   18.919831   22.934969 H          1 MOL1         0.0960
      16    H11     20.809803   20.339638   23.713228 H          1 MOL1         0.0960
      17    C6      20.729754   18.525151   24.911761 C.3        1 MOL1        -0.1450
      18    H12     21.734791   18.653253   25.335342 H          1 MOL1         0.0960
      19    H13     20.590307   17.447379   24.753833 H          1 MOL1         0.0960
      20    C7      19.689623   19.040031   25.924469 C.3        1 MOL1         0.0172
      21    H14     19.828061   20.113303   26.080361 H          1 MOL1         0.0934
      22    H15     18.681166   18.875370   25.536663 H          1 MOL1         0.0934
      23    N1      19.785814   18.355396   27.272560 N.4        1 MOL1        -0.5956
      24    H16     19.085638   18.712204   27.931970 H          1 MOL1         0.3624
      25    H17     20.703669   18.495285   27.707492 H          1 MOL1         0.3624
      26    H18     19.637933   17.343540   27.198663 H          1 MOL1         0.3624
@<TRIPOS>BOND
    1     1     2    1
    2     1     3    1
    3     1     4    1
    4     1     5    1
    5     5     6    1
    6     5     7    1
    7     5     8    1
    8     8     9    1
    9     8    10    1
   10     8    11    1
   11    11    12    1
   12    11    13    1
   13    11    14    1
   14    14    15    1
   15    14    16    1
   16    14    17    1
   17    17    18    1
   18    17    19    1
   19    17    20    1
   20    20    21    1
   21    20    22    1
   22    20    23    1
   23    23    24    1
   24    23    25    1
   25    23    26    1
@<TRIPOS>SUBSTRUCTURE
       1 MOL1            1 RESIDUE      1      MOL     
@<SCITEGIC>MOL_PROPERTY
VM2 Rank
SciTegic.value.IntegerValue
77

@<SCITEGIC>MOL_PROPERTY
Conf_Id
SciTegic.value.IntegerValue
1482

@<SCITEGIC>MOL_PROPERTY
Probability
SciTegic.value.DoubleValue
0.35

@<SCITEGIC>MOL_PROPERTY
Sum Probability
SciTegic.value.DoubleValue
94.69

@<SCITEGIC>MOL_PROPERTY
Delta G
SciTegic.value.DoubleValue
1.806

@<SCITEGIC>MOL_PROPERTY
G
SciTegic.value.DoubleValue
50.067

@<SCITEGIC>MOL_PROPERTY
E
SciTegic.value.DoubleValue
17.200

@<SCITEGIC>MOL_PROPERTY
-TS
SciTegic.value.DoubleValue
32.867

@<SCITEGIC>MOL_PROPERTY
U+W
SciTegic.value.DoubleValue
-4.261

@<SCITEGIC>MOL_PROPERTY
U
SciTegic.value.DoubleValue
49.209

@<SCITEGIC>MOL_PROPERTY
W
SciTegic.value.DoubleValue
-53.471

@<SCITEGIC>MOL_PROPERTY
W(PB)
SciTegic.value.DoubleValue
-55.745

@<SCITEGIC>MOL_PROPERTY
W(SA)
SciTegic.value.DoubleValue
2.274

@<SCITEGIC>MOL_PROPERTY
Valence
SciTegic.value.DoubleValue
3.465

@<SCITEGIC>MOL_PROPERTY
Coulomb
SciTegic.value.DoubleValue
44.958

@<SCITEGIC>MOL_PROPERTY
VdW
SciTegic.value.DoubleValue
0.786

@<SCITEGIC>MOL_PROPERTY
VdW6
SciTegic.value.DoubleValue
-7.903

@<SCITEGIC>MOL_PROPERTY
VdW12
SciTegic.value.DoubleValue
8.690

@<SCITEGIC>MOL_PROPERTY
Bond
SciTegic.value.DoubleValue
0.237

@<SCITEGIC>MOL_PROPERTY
Angle
SciTegic.value.DoubleValue
1.212

@<SCITEGIC>MOL_PROPERTY
Pdih
SciTegic.value.DoubleValue
2.015

@<SCITEGIC>MOL_PROPERTY
Idih
SciTegic.value.DoubleValue
0.000

@<SCITEGIC>MOL_PROPERTY
Tether
SciTegic.value.DoubleValue
0.000

@<TRIPOS>MOLECULE
guest-s14_vm2.mol2 : vm2 ligand conformer 78
          26          25           1
SMALL
USER_CHARGES
 
@<TRIPOS>ATOM
       1    C1      20.376535   19.176589   19.596962 C.3        1 MOL1        -0.2400
       2    H1      20.508585   20.233421   19.859329 H          1 MOL1         0.0971
       3    H2      21.022812   18.968673   18.734394 H          1 MOL1         0.0971
       4    H3      19.336142   19.027482   19.280163 H          1 MOL1         0.0971
       5    C2      20.736668   18.247051   20.778231 C.3        1 MOL1        -0.1385
       6    H4      21.769883   18.439623   21.099341 H          1 MOL1         0.0960
       7    H5      20.713385   17.205997   20.426856 H          1 MOL1         0.0960
       8    C3      19.778548   18.382980   21.986431 C.3        1 MOL1        -0.1409
       9    H6      18.747625   18.186872   21.661264 H          1 MOL1         0.0960
      10    H7      20.031582   17.596044   22.708489 H          1 MOL1         0.0960
      11    C4      19.854239   19.766305   22.681217 C.3        1 MOL1        -0.1409
      12    H8      19.608840   20.552748   21.956058 H          1 MOL1         0.0960
      13    H9      20.885316   19.962894   23.003888 H          1 MOL1         0.0960
      14    C5      18.885022   19.910784   23.883438 C.3        1 MOL1        -0.1409
      15    H10     18.966088   20.933025   24.278282 H          1 MOL1         0.0960
      16    H11     17.851034   19.806637   23.526706 H          1 MOL1         0.0960
      17    C6      19.120900   18.909069   25.041419 C.3        1 MOL1        -0.1450
      18    H12     18.901707   17.887293   24.706655 H          1 MOL1         0.0960
      19    H13     18.407552   19.126733   25.847391 H          1 MOL1         0.0960
      20    C7      20.552417   18.975556   25.605250 C.3        1 MOL1         0.0172
      21    H14     21.269779   18.719166   24.821266 H          1 MOL1         0.0934
      22    H15     20.765596   19.991279   25.949052 H          1 MOL1         0.0934
      23    N1      20.776672   18.030665   26.768050 N.4        1 MOL1        -0.5956
      24    H16     21.735359   18.090550   27.128134 H          1 MOL1         0.3624
      25    H17     20.617913   17.053254   26.502505 H          1 MOL1         0.3624
      26    H18     20.149955   18.235819   27.553099 H          1 MOL1         0.3624
@<TRIPOS>BOND
    1     1     2    1
    2     1     3    1
    3     1     4    1
    4     1     5    1
    5     5     6    1
    6     5     7    1
    7     5     8    1
    8     8     9    1
    9     8    10    1
   10     8    11    1
   11    11    12    1
   12    11    13    1
   13    11    14    1
   14    14    15    1
   15    14    16    1
   16    14    17    1
   17    17    18    1
   18    17    19    1
   19    17    20    1
   20    20    21    1
   21    20    22    1
   22    20    23    1
   23    23    24    1
   24    23    25    1
   25    23    26    1
@<TRIPOS>SUBSTRUCTURE
       1 MOL1            1 RESIDUE      1      MOL     
@<SCITEGIC>MOL_PROPERTY
VM2 Rank
SciTegic.value.IntegerValue
78

@<SCITEGIC>MOL_PROPERTY
Conf_Id
SciTegic.value.IntegerValue
823

@<SCITEGIC>MOL_PROPERTY
Probability
SciTegic.value.DoubleValue
0.33

@<SCITEGIC>MOL_PROPERTY
Sum Probability
SciTegic.value.DoubleValue
95.02

@<SCITEGIC>MOL_PROPERTY
Delta G
SciTegic.value.DoubleValue
1.842

@<SCITEGIC>MOL_PROPERTY
G
SciTegic.value.DoubleValue
50.103

@<SCITEGIC>MOL_PROPERTY
E
SciTegic.value.DoubleValue
17.342

@<SCITEGIC>MOL_PROPERTY
-TS
SciTegic.value.DoubleValue
32.761

@<SCITEGIC>MOL_PROPERTY
U+W
SciTegic.value.DoubleValue
-4.120

@<SCITEGIC>MOL_PROPERTY
U
SciTegic.value.DoubleValue
49.638

@<SCITEGIC>MOL_PROPERTY
W
SciTegic.value.DoubleValue
-53.758

@<SCITEGIC>MOL_PROPERTY
W(PB)
SciTegic.value.DoubleValue
-56.037

@<SCITEGIC>MOL_PROPERTY
W(SA)
SciTegic.value.DoubleValue
2.279

@<SCITEGIC>MOL_PROPERTY
Valence
SciTegic.value.DoubleValue
3.491

@<SCITEGIC>MOL_PROPERTY
Coulomb
SciTegic.value.DoubleValue
45.361

@<SCITEGIC>MOL_PROPERTY
VdW
SciTegic.value.DoubleValue
0.787

@<SCITEGIC>MOL_PROPERTY
VdW6
SciTegic.value.DoubleValue
-7.914

@<SCITEGIC>MOL_PROPERTY
VdW12
SciTegic.value.DoubleValue
8.701

@<SCITEGIC>MOL_PROPERTY
Bond
SciTegic.value.DoubleValue
0.240

@<SCITEGIC>MOL_PROPERTY
Angle
SciTegic.value.DoubleValue
1.203

@<SCITEGIC>MOL_PROPERTY
Pdih
SciTegic.value.DoubleValue
2.047

@<SCITEGIC>MOL_PROPERTY
Idih
SciTegic.value.DoubleValue
0.000

@<SCITEGIC>MOL_PROPERTY
Tether
SciTegic.value.DoubleValue
0.000

@<TRIPOS>MOLECULE
guest-s14_vm2.mol2 : vm2 ligand conformer 79
          26          25           1
SMALL
USER_CHARGES
 
@<TRIPOS>ATOM
       1    C1      19.806811   18.801175   19.577975 C.3        1 MOL1        -0.2400
       2    H1      19.783327   18.152036   18.693104 H          1 MOL1         0.0971
       3    H2      18.772407   19.089746   19.801365 H          1 MOL1         0.0971
       4    H3      20.368136   19.707015   19.314573 H          1 MOL1         0.0971
       5    C2      20.463352   18.066983   20.769212 C.3        1 MOL1        -0.1385
       6    H4      21.444608   17.687569   20.451437 H          1 MOL1         0.0960
       7    H5      19.864780   17.184755   21.035889 H          1 MOL1         0.0960
       8    C3      20.659556   18.963369   22.015890 C.3        1 MOL1        -0.1409
       9    H6      21.248787   18.397940   22.749211 H          1 MOL1         0.0960
      10    H7      21.260605   19.842254   21.745159 H          1 MOL1         0.0960
      11    C4      19.327447   19.419393   22.663633 C.3        1 MOL1        -0.1409
      12    H8      18.725975   18.540635   22.931772 H          1 MOL1         0.0960
      13    H9      18.735846   19.977780   21.926895 H          1 MOL1         0.0960
      14    C5      19.520436   20.329429   23.904671 C.3        1 MOL1        -0.1409
      15    H10     20.039742   21.248463   23.599819 H          1 MOL1         0.0960
      16    H11     18.531667   20.646949   24.263789 H          1 MOL1         0.0960
      17    C6      20.293306   19.681428   25.080580 C.3        1 MOL1        -0.1450
      18    H12     20.336773   20.397617   25.911852 H          1 MOL1         0.0960
      19    H13     21.333246   19.489109   24.787877 H          1 MOL1         0.0960
      20    C7      19.642473   18.376162   25.574811 C.3        1 MOL1         0.0172
      21    H14     18.610072   18.571357   25.877108 H          1 MOL1         0.0934
      22    H15     19.631853   17.640342   24.766462 H          1 MOL1         0.0934
      23    N1      20.367620   17.761060   26.754228 N.4        1 MOL1        -0.5956
      24    H16     19.918423   16.893576   27.067308 H          1 MOL1         0.3624
      25    H17     20.389608   18.393408   27.560961 H          1 MOL1         0.3624
      26    H18     21.339763   17.528567   26.526329 H          1 MOL1         0.3624
@<TRIPOS>BOND
    1     1     2    1
    2     1     3    1
    3     1     4    1
    4     1     5    1
    5     5     6    1
    6     5     7    1
    7     5     8    1
    8     8     9    1
    9     8    10    1
   10     8    11    1
   11    11    12    1
   12    11    13    1
   13    11    14    1
   14    14    15    1
   15    14    16    1
   16    14    17    1
   17    17    18    1
   18    17    19    1
   19    17    20    1
   20    20    21    1
   21    20    22    1
   22    20    23    1
   23    23    24    1
   24    23    25    1
   25    23    26    1
@<TRIPOS>SUBSTRUCTURE
       1 MOL1            1 RESIDUE      1      MOL     
@<SCITEGIC>MOL_PROPERTY
VM2 Rank
SciTegic.value.IntegerValue
79

@<SCITEGIC>MOL_PROPERTY
Conf_Id
SciTegic.value.IntegerValue
1313

@<SCITEGIC>MOL_PROPERTY
Probability
SciTegic.value.DoubleValue
0.33

@<SCITEGIC>MOL_PROPERTY
Sum Probability
SciTegic.value.DoubleValue
95.35

@<SCITEGIC>MOL_PROPERTY
Delta G
SciTegic.value.DoubleValue
1.844

@<SCITEGIC>MOL_PROPERTY
G
SciTegic.value.DoubleValue
50.105

@<SCITEGIC>MOL_PROPERTY
E
SciTegic.value.DoubleValue
17.343

@<SCITEGIC>MOL_PROPERTY
-TS
SciTegic.value.DoubleValue
32.761

@<SCITEGIC>MOL_PROPERTY
U+W
SciTegic.value.DoubleValue
-4.118

@<SCITEGIC>MOL_PROPERTY
U
SciTegic.value.DoubleValue
49.638

@<SCITEGIC>MOL_PROPERTY
W
SciTegic.value.DoubleValue
-53.757

@<SCITEGIC>MOL_PROPERTY
W(PB)
SciTegic.value.DoubleValue
-56.049

@<SCITEGIC>MOL_PROPERTY
W(SA)
SciTegic.value.DoubleValue
2.292

@<SCITEGIC>MOL_PROPERTY
Valence
SciTegic.value.DoubleValue
3.491

@<SCITEGIC>MOL_PROPERTY
Coulomb
SciTegic.value.DoubleValue
45.361

@<SCITEGIC>MOL_PROPERTY
VdW
SciTegic.value.DoubleValue
0.787

@<SCITEGIC>MOL_PROPERTY
VdW6
SciTegic.value.DoubleValue
-7.914

@<SCITEGIC>MOL_PROPERTY
VdW12
SciTegic.value.DoubleValue
8.701

@<SCITEGIC>MOL_PROPERTY
Bond
SciTegic.value.DoubleValue
0.240

@<SCITEGIC>MOL_PROPERTY
Angle
SciTegic.value.DoubleValue
1.203

@<SCITEGIC>MOL_PROPERTY
Pdih
SciTegic.value.DoubleValue
2.047

@<SCITEGIC>MOL_PROPERTY
Idih
SciTegic.value.DoubleValue
0.000

@<SCITEGIC>MOL_PROPERTY
Tether
SciTegic.value.DoubleValue
0.000

@<TRIPOS>MOLECULE
guest-s14_vm2.mol2 : vm2 ligand conformer 80
          26          25           1
SMALL
USER_CHARGES
 
@<TRIPOS>ATOM
       1    C1      19.072808   19.197927   20.075593 C.3        1 MOL1        -0.2400
       2    H1      19.781446   19.369113   19.254949 H          1 MOL1         0.0971
       3    H2      18.120323   18.875541   19.635530 H          1 MOL1         0.0971
       4    H3      18.896058   20.154803   20.582290 H          1 MOL1         0.0971
       5    C2      19.606272   18.128554   21.055399 C.3        1 MOL1        -0.1385
       6    H4      19.663472   17.164878   20.530379 H          1 MOL1         0.0960
       7    H5      18.887637   17.983483   21.873040 H          1 MOL1         0.0960
       8    C3      21.007361   18.463685   21.626833 C.3        1 MOL1        -0.1409
       9    H6      21.339952   17.634562   22.265266 H          1 MOL1         0.0960
      10    H7      21.727302   18.502681   20.797855 H          1 MOL1         0.0960
      11    C4      21.095845   19.794779   22.421143 C.3        1 MOL1        -0.1409
      12    H8      20.934583   20.637292   21.735515 H          1 MOL1         0.0960
      13    H9      22.122265   19.912444   22.794835 H          1 MOL1         0.0960
      14    C5      20.111036   19.921730   23.611951 C.3        1 MOL1        -0.1409
      15    H10     20.255530   20.906581   24.077419 H          1 MOL1         0.0960
      16    H11     19.075823   19.910206   23.245736 H          1 MOL1         0.0960
      17    C6      20.297977   18.826196   24.687399 C.3        1 MOL1        -0.1450
      18    H12     21.341863   18.817200   25.028018 H          1 MOL1         0.0960
      19    H13     20.088198   17.837845   24.259305 H          1 MOL1         0.0960
      20    C7      19.368568   19.058930   25.891426 C.3        1 MOL1         0.0172
      21    H14     19.581542   20.034053   26.337768 H          1 MOL1         0.0934
      22    H15     18.327001   19.052776   25.558941 H          1 MOL1         0.0934
      23    N1      19.521133   18.007200   26.971257 N.4        1 MOL1        -0.5956
      24    H16     18.893662   18.181471   27.763922 H          1 MOL1         0.3624
      25    H17     20.475001   17.980335   27.346248 H          1 MOL1         0.3624
      26    H18     19.307179   17.067181   26.622369 H          1 MOL1         0.3624
@<TRIPOS>BOND
    1     1     2    1
    2     1     3    1
    3     1     4    1
    4     1     5    1
    5     5     6    1
    6     5     7    1
    7     5     8    1
    8     8     9    1
    9     8    10    1
   10     8    11    1
   11    11    12    1
   12    11    13    1
   13    11    14    1
   14    14    15    1
   15    14    16    1
   16    14    17    1
   17    17    18    1
   18    17    19    1
   19    17    20    1
   20    20    21    1
   21    20    22    1
   22    20    23    1
   23    23    24    1
   24    23    25    1
   25    23    26    1
@<TRIPOS>SUBSTRUCTURE
       1 MOL1            1 RESIDUE      1      MOL     
@<SCITEGIC>MOL_PROPERTY
VM2 Rank
SciTegic.value.IntegerValue
80

@<SCITEGIC>MOL_PROPERTY
Conf_Id
SciTegic.value.IntegerValue
1466

@<SCITEGIC>MOL_PROPERTY
Probability
SciTegic.value.DoubleValue
0.31

@<SCITEGIC>MOL_PROPERTY
Sum Probability
SciTegic.value.DoubleValue
95.66

@<SCITEGIC>MOL_PROPERTY
Delta G
SciTegic.value.DoubleValue
1.879

@<SCITEGIC>MOL_PROPERTY
G
SciTegic.value.DoubleValue
50.140

@<SCITEGIC>MOL_PROPERTY
E
SciTegic.value.DoubleValue
17.022

@<SCITEGIC>MOL_PROPERTY
-TS
SciTegic.value.DoubleValue
33.118

@<SCITEGIC>MOL_PROPERTY
U+W
SciTegic.value.DoubleValue
-4.440

@<SCITEGIC>MOL_PROPERTY
U
SciTegic.value.DoubleValue
49.278

@<SCITEGIC>MOL_PROPERTY
W
SciTegic.value.DoubleValue
-53.718

@<SCITEGIC>MOL_PROPERTY
W(PB)
SciTegic.value.DoubleValue
-55.975

@<SCITEGIC>MOL_PROPERTY
W(SA)
SciTegic.value.DoubleValue
2.257

@<SCITEGIC>MOL_PROPERTY
Valence
SciTegic.value.DoubleValue
3.566

@<SCITEGIC>MOL_PROPERTY
Coulomb
SciTegic.value.DoubleValue
45.108

@<SCITEGIC>MOL_PROPERTY
VdW
SciTegic.value.DoubleValue
0.605

@<SCITEGIC>MOL_PROPERTY
VdW6
SciTegic.value.DoubleValue
-8.326

@<SCITEGIC>MOL_PROPERTY
VdW12
SciTegic.value.DoubleValue
8.930

@<SCITEGIC>MOL_PROPERTY
Bond
SciTegic.value.DoubleValue
0.252

@<SCITEGIC>MOL_PROPERTY
Angle
SciTegic.value.DoubleValue
1.371

@<SCITEGIC>MOL_PROPERTY
Pdih
SciTegic.value.DoubleValue
1.943

@<SCITEGIC>MOL_PROPERTY
Idih
SciTegic.value.DoubleValue
0.000

@<SCITEGIC>MOL_PROPERTY
Tether
SciTegic.value.DoubleValue
0.000

@<TRIPOS>MOLECULE
guest-s14_vm2.mol2 : vm2 ligand conformer 81
          26          25           1
SMALL
USER_CHARGES
 
@<TRIPOS>ATOM
       1    C1      20.277212   19.992009   20.115603 C.3        1 MOL1        -0.2400
       2    H1      19.444304   20.516279   20.600372 H          1 MOL1         0.0971
       3    H2      20.967954   20.753076   19.730282 H          1 MOL1         0.0971
       4    H3      19.879709   19.433775   19.258110 H          1 MOL1         0.0971
       5    C2      21.004235   19.050342   21.101942 C.3        1 MOL1        -0.1385
       6    H4      21.381784   19.628141   21.956122 H          1 MOL1         0.0960
       7    H5      21.891231   18.633785   20.604644 H          1 MOL1         0.0960
       8    C3      20.119457   17.878247   21.597181 C.3        1 MOL1        -0.1409
       9    H6      19.839338   17.257770   20.734870 H          1 MOL1         0.0960
      10    H7      20.720610   17.226246   22.244613 H          1 MOL1         0.0960
      11    C4      18.825268   18.297684   22.345321 C.3        1 MOL1        -0.1409
      12    H8      18.296540   17.389972   22.667089 H          1 MOL1         0.0960
      13    H9      18.146750   18.799141   21.642417 H          1 MOL1         0.0960
      14    C5      19.040225   19.215698   23.576191 C.3        1 MOL1        -0.1409
      15    H10     19.474706   20.173077   23.259070 H          1 MOL1         0.0960
      16    H11     18.057304   19.457306   24.003931 H          1 MOL1         0.0960
      17    C6      19.922733   18.578797   24.674948 C.3        1 MOL1        -0.1450
      18    H12     20.932784   18.394611   24.287671 H          1 MOL1         0.0960
      19    H13     19.504869   17.606143   24.966727 H          1 MOL1         0.0960
      20    C7      20.018155   19.487224   25.913216 C.3        1 MOL1         0.0172
      21    H14     20.448657   20.451522   25.629941 H          1 MOL1         0.0934
      22    H15     19.018147   19.662704   26.318969 H          1 MOL1         0.0934
      23    N1      20.873716   18.898998   27.016598 N.4        1 MOL1        -0.5956
      24    H16     20.923354   19.519688   27.831881 H          1 MOL1         0.3624
      25    H17     21.837325   18.735261   26.707113 H          1 MOL1         0.3624
      26    H18     20.506011   18.000916   27.347425 H          1 MOL1         0.3624
@<TRIPOS>BOND
    1     1     2    1
    2     1     3    1
    3     1     4    1
    4     1     5    1
    5     5     6    1
    6     5     7    1
    7     5     8    1
    8     8     9    1
    9     8    10    1
   10     8    11    1
   11    11    12    1
   12    11    13    1
   13    11    14    1
   14    14    15    1
   15    14    16    1
   16    14    17    1
   17    17    18    1
   18    17    19    1
   19    17    20    1
   20    20    21    1
   21    20    22    1
   22    20    23    1
   23    23    24    1
   24    23    25    1
   25    23    26    1
@<TRIPOS>SUBSTRUCTURE
       1 MOL1            1 RESIDUE      1      MOL     
@<SCITEGIC>MOL_PROPERTY
VM2 Rank
SciTegic.value.IntegerValue
81

@<SCITEGIC>MOL_PROPERTY
Conf_Id
SciTegic.value.IntegerValue
1469

@<SCITEGIC>MOL_PROPERTY
Probability
SciTegic.value.DoubleValue
0.31

@<SCITEGIC>MOL_PROPERTY
Sum Probability
SciTegic.value.DoubleValue
95.97

@<SCITEGIC>MOL_PROPERTY
Delta G
SciTegic.value.DoubleValue
1.884

@<SCITEGIC>MOL_PROPERTY
G
SciTegic.value.DoubleValue
50.145

@<SCITEGIC>MOL_PROPERTY
E
SciTegic.value.DoubleValue
17.027

@<SCITEGIC>MOL_PROPERTY
-TS
SciTegic.value.DoubleValue
33.118

@<SCITEGIC>MOL_PROPERTY
U+W
SciTegic.value.DoubleValue
-4.435

@<SCITEGIC>MOL_PROPERTY
U
SciTegic.value.DoubleValue
49.278

@<SCITEGIC>MOL_PROPERTY
W
SciTegic.value.DoubleValue
-53.712

@<SCITEGIC>MOL_PROPERTY
W(PB)
SciTegic.value.DoubleValue
-55.986

@<SCITEGIC>MOL_PROPERTY
W(SA)
SciTegic.value.DoubleValue
2.274

@<SCITEGIC>MOL_PROPERTY
Valence
SciTegic.value.DoubleValue
3.566

@<SCITEGIC>MOL_PROPERTY
Coulomb
SciTegic.value.DoubleValue
45.108

@<SCITEGIC>MOL_PROPERTY
VdW
SciTegic.value.DoubleValue
0.604

@<SCITEGIC>MOL_PROPERTY
VdW6
SciTegic.value.DoubleValue
-8.325

@<SCITEGIC>MOL_PROPERTY
VdW12
SciTegic.value.DoubleValue
8.930

@<SCITEGIC>MOL_PROPERTY
Bond
SciTegic.value.DoubleValue
0.252

@<SCITEGIC>MOL_PROPERTY
Angle
SciTegic.value.DoubleValue
1.371

@<SCITEGIC>MOL_PROPERTY
Pdih
SciTegic.value.DoubleValue
1.943

@<SCITEGIC>MOL_PROPERTY
Idih
SciTegic.value.DoubleValue
0.000

@<SCITEGIC>MOL_PROPERTY
Tether
SciTegic.value.DoubleValue
0.000

@<TRIPOS>MOLECULE
guest-s14_vm2.mol2 : vm2 ligand conformer 82
          26          25           1
SMALL
USER_CHARGES
 
@<TRIPOS>ATOM
       1    C1      18.578002   19.017266   20.470722 C.3        1 MOL1        -0.2400
       2    H1      18.202166   18.965830   19.440670 H          1 MOL1         0.0971
       3    H2      18.251877   18.105632   20.986510 H          1 MOL1         0.0971
       4    H3      18.102738   19.877952   20.958921 H          1 MOL1         0.0971
       5    C2      20.117497   19.154048   20.478448 C.3        1 MOL1        -0.1385
       6    H4      20.400305   20.011330   19.851675 H          1 MOL1         0.0960
       7    H5      20.569868   18.268601   20.010413 H          1 MOL1         0.0960
       8    C3      20.707722   19.357657   21.894486 C.3        1 MOL1        -0.1409
       9    H6      21.784935   19.552022   21.800132 H          1 MOL1         0.0960
      10    H7      20.266793   20.258998   22.340194 H          1 MOL1         0.0960
      11    C4      20.493090   18.141028   22.829584 C.3        1 MOL1        -0.1409
      12    H8      20.843920   17.232717   22.320735 H          1 MOL1         0.0960
      13    H9      19.421676   17.992065   23.013545 H          1 MOL1         0.0960
      14    C5      21.241438   18.265088   24.181865 C.3        1 MOL1        -0.1409
      15    H10     21.080458   17.346442   24.761846 H          1 MOL1         0.0960
      16    H11     22.322511   18.309857   23.991006 H          1 MOL1         0.0960
      17    C6      20.834258   19.491027   25.040942 C.3        1 MOL1        -0.1450
      18    H12     21.151883   20.414439   24.540018 H          1 MOL1         0.0960
      19    H13     21.381795   19.462982   25.992313 H          1 MOL1         0.0960
      20    C7      19.322419   19.577655   25.331200 C.3        1 MOL1         0.0172
      21    H14     19.114325   20.481909   25.909540 H          1 MOL1         0.0934
      22    H15     18.769419   19.640924   24.390350 H          1 MOL1         0.0934
      23    N1      18.786574   18.395232   26.113752 N.4        1 MOL1        -0.5956
      24    H16     19.247356   18.302320   27.024729 H          1 MOL1         0.3624
      25    H17     18.929472   17.514190   25.610597 H          1 MOL1         0.3624
      26    H18     17.780454   18.481203   26.293738 H          1 MOL1         0.3624
@<TRIPOS>BOND
    1     1     2    1
    2     1     3    1
    3     1     4    1
    4     1     5    1
    5     5     6    1
    6     5     7    1
    7     5     8    1
    8     8     9    1
    9     8    10    1
   10     8    11    1
   11    11    12    1
   12    11    13    1
   13    11    14    1
   14    14    15    1
   15    14    16    1
   16    14    17    1
   17    17    18    1
   18    17    19    1
   19    17    20    1
   20    20    21    1
   21    20    22    1
   22    20    23    1
   23    23    24    1
   24    23    25    1
   25    23    26    1
@<TRIPOS>SUBSTRUCTURE
       1 MOL1            1 RESIDUE      1      MOL     
@<SCITEGIC>MOL_PROPERTY
VM2 Rank
SciTegic.value.IntegerValue
82

@<SCITEGIC>MOL_PROPERTY
Conf_Id
SciTegic.value.IntegerValue
552

@<SCITEGIC>MOL_PROPERTY
Probability
SciTegic.value.DoubleValue
0.24

@<SCITEGIC>MOL_PROPERTY
Sum Probability
SciTegic.value.DoubleValue
96.20

@<SCITEGIC>MOL_PROPERTY
Delta G
SciTegic.value.DoubleValue
2.046

@<SCITEGIC>MOL_PROPERTY
G
SciTegic.value.DoubleValue
50.307

@<SCITEGIC>MOL_PROPERTY
E
SciTegic.value.DoubleValue
17.280

@<SCITEGIC>MOL_PROPERTY
-TS
SciTegic.value.DoubleValue
33.027

@<SCITEGIC>MOL_PROPERTY
U+W
SciTegic.value.DoubleValue
-4.182

@<SCITEGIC>MOL_PROPERTY
U
SciTegic.value.DoubleValue
49.856

@<SCITEGIC>MOL_PROPERTY
W
SciTegic.value.DoubleValue
-54.038

@<SCITEGIC>MOL_PROPERTY
W(PB)
SciTegic.value.DoubleValue
-56.299

@<SCITEGIC>MOL_PROPERTY
W(SA)
SciTegic.value.DoubleValue
2.260

@<SCITEGIC>MOL_PROPERTY
Valence
SciTegic.value.DoubleValue
3.483

@<SCITEGIC>MOL_PROPERTY
Coulomb
SciTegic.value.DoubleValue
45.718

@<SCITEGIC>MOL_PROPERTY
VdW
SciTegic.value.DoubleValue
0.655

@<SCITEGIC>MOL_PROPERTY
VdW6
SciTegic.value.DoubleValue
-8.795

@<SCITEGIC>MOL_PROPERTY
VdW12
SciTegic.value.DoubleValue
9.450

@<SCITEGIC>MOL_PROPERTY
Bond
SciTegic.value.DoubleValue
0.257

@<SCITEGIC>MOL_PROPERTY
Angle
SciTegic.value.DoubleValue
1.140

@<SCITEGIC>MOL_PROPERTY
Pdih
SciTegic.value.DoubleValue
2.086

@<SCITEGIC>MOL_PROPERTY
Idih
SciTegic.value.DoubleValue
0.000

@<SCITEGIC>MOL_PROPERTY
Tether
SciTegic.value.DoubleValue
0.000

@<TRIPOS>MOLECULE
guest-s14_vm2.mol2 : vm2 ligand conformer 83
          26          25           1
SMALL
USER_CHARGES
 
@<TRIPOS>ATOM
       1    C1      20.617893   20.363739   20.538898 C.3        1 MOL1        -0.2400
       2    H1      21.559266   20.288894   21.097187 H          1 MOL1         0.0971
       3    H2      20.860504   20.720395   19.529522 H          1 MOL1         0.0971
       4    H3      19.990555   21.124114   21.021880 H          1 MOL1         0.0971
       5    C2      19.888515   19.002790   20.470785 C.3        1 MOL1        -0.1385
       6    H4      20.546609   18.253094   20.009717 H          1 MOL1         0.0960
       7    H5      19.019208   19.099472   19.805418 H          1 MOL1         0.0960
       8    C3      19.404110   18.497174   21.850891 C.3        1 MOL1        -0.1409
       9    H6      18.728058   19.243346   22.288693 H          1 MOL1         0.0960
      10    H7      18.807653   17.586835   21.700580 H          1 MOL1         0.0960
      11    C4      20.562503   18.186848   22.831952 C.3        1 MOL1        -0.1409
      12    H8      21.110810   19.106969   23.070059 H          1 MOL1         0.0960
      13    H9      21.283212   17.522642   22.335519 H          1 MOL1         0.0960
      14    C5      20.092163   17.506598   24.143487 C.3        1 MOL1        -0.1409
      15    H10     19.636067   16.536834   23.901240 H          1 MOL1         0.0960
      16    H11     20.972291   17.275090   24.758290 H          1 MOL1         0.0960
      17    C6      19.085472   18.336870   24.982509 C.3        1 MOL1        -0.1450
      18    H12     18.852294   17.793561   25.907783 H          1 MOL1         0.0960
      19    H13     18.135860   18.423904   24.439219 H          1 MOL1         0.0960
      20    C7      19.585113   19.751069   25.340010 C.3        1 MOL1         0.0172
      21    H14     19.787478   20.312977   24.424413 H          1 MOL1         0.0934
      22    H15     18.809036   20.280392   25.899455 H          1 MOL1         0.0934
      23    N1      20.845231   19.753913   26.182467 N.4        1 MOL1        -0.5956
      24    H16     21.152318   20.706603   26.406394 H          1 MOL1         0.3624
      25    H17     21.622053   19.291346   25.700390 H          1 MOL1         0.3624
      26    H18     20.707658   19.265943   27.073414 H          1 MOL1         0.3624
@<TRIPOS>BOND
    1     1     2    1
    2     1     3    1
    3     1     4    1
    4     1     5    1
    5     5     6    1
    6     5     7    1
    7     5     8    1
    8     8     9    1
    9     8    10    1
   10     8    11    1
   11    11    12    1
   12    11    13    1
   13    11    14    1
   14    14    15    1
   15    14    16    1
   16    14    17    1
   17    17    18    1
   18    17    19    1
   19    17    20    1
   20    20    21    1
   21    20    22    1
   22    20    23    1
   23    23    24    1
   24    23    25    1
   25    23    26    1
@<TRIPOS>SUBSTRUCTURE
       1 MOL1            1 RESIDUE      1      MOL     
@<SCITEGIC>MOL_PROPERTY
VM2 Rank
SciTegic.value.IntegerValue
83

@<SCITEGIC>MOL_PROPERTY
Conf_Id
SciTegic.value.IntegerValue
1294

@<SCITEGIC>MOL_PROPERTY
Probability
SciTegic.value.DoubleValue
0.23

@<SCITEGIC>MOL_PROPERTY
Sum Probability
SciTegic.value.DoubleValue
96.44

@<SCITEGIC>MOL_PROPERTY
Delta G
SciTegic.value.DoubleValue
2.057

@<SCITEGIC>MOL_PROPERTY
G
SciTegic.value.DoubleValue
50.318

@<SCITEGIC>MOL_PROPERTY
E
SciTegic.value.DoubleValue
17.291

@<SCITEGIC>MOL_PROPERTY
-TS
SciTegic.value.DoubleValue
33.027

@<SCITEGIC>MOL_PROPERTY
U+W
SciTegic.value.DoubleValue
-4.170

@<SCITEGIC>MOL_PROPERTY
U
SciTegic.value.DoubleValue
49.857

@<SCITEGIC>MOL_PROPERTY
W
SciTegic.value.DoubleValue
-54.027

@<SCITEGIC>MOL_PROPERTY
W(PB)
SciTegic.value.DoubleValue
-56.274

@<SCITEGIC>MOL_PROPERTY
W(SA)
SciTegic.value.DoubleValue
2.247

@<SCITEGIC>MOL_PROPERTY
Valence
SciTegic.value.DoubleValue
3.483

@<SCITEGIC>MOL_PROPERTY
Coulomb
SciTegic.value.DoubleValue
45.718

@<SCITEGIC>MOL_PROPERTY
VdW
SciTegic.value.DoubleValue
0.655

@<SCITEGIC>MOL_PROPERTY
VdW6
SciTegic.value.DoubleValue
-8.795

@<SCITEGIC>MOL_PROPERTY
VdW12
SciTegic.value.DoubleValue
9.450

@<SCITEGIC>MOL_PROPERTY
Bond
SciTegic.value.DoubleValue
0.257

@<SCITEGIC>MOL_PROPERTY
Angle
SciTegic.value.DoubleValue
1.140

@<SCITEGIC>MOL_PROPERTY
Pdih
SciTegic.value.DoubleValue
2.086

@<SCITEGIC>MOL_PROPERTY
Idih
SciTegic.value.DoubleValue
0.000

@<SCITEGIC>MOL_PROPERTY
Tether
SciTegic.value.DoubleValue
0.000

@<TRIPOS>MOLECULE
guest-s14_vm2.mol2 : vm2 ligand conformer 84
          26          25           1
SMALL
USER_CHARGES
 
@<TRIPOS>ATOM
       1    C1      19.322793   19.545239   19.745848 C.3        1 MOL1        -0.2400
       2    H1      20.107509   20.148705   19.271246 H          1 MOL1         0.0971
       3    H2      18.867999   18.914655   18.970907 H          1 MOL1         0.0971
       4    H3      18.548928   20.226231   20.123443 H          1 MOL1         0.0971
       5    C2      19.901237   18.677954   20.883920 C.3        1 MOL1        -0.1385
       6    H4      20.649848   17.987124   20.471663 H          1 MOL1         0.0960
       7    H5      19.096869   18.061078   21.306116 H          1 MOL1         0.0960
       8    C3      20.545312   19.545364   21.990838 C.3        1 MOL1        -0.1409
       9    H6      21.299255   20.202008   21.535254 H          1 MOL1         0.0960
      10    H7      19.789664   20.211750   22.427192 H          1 MOL1         0.0960
      11    C4      21.231201   18.716317   23.107190 C.3        1 MOL1        -0.1409
      12    H8      21.711259   19.405699   23.814516 H          1 MOL1         0.0960
      13    H9      22.049212   18.132095   22.663707 H          1 MOL1         0.0960
      14    C5      20.295896   17.750674   23.883921 C.3        1 MOL1        -0.1409
      15    H10     19.944491   16.958839   23.209255 H          1 MOL1         0.0960
      16    H11     20.884457   17.234627   24.654210 H          1 MOL1         0.0960
      17    C6      19.068575   18.428059   24.547847 C.3        1 MOL1        -0.1450
      18    H12     18.494274   17.673131   25.100918 H          1 MOL1         0.0960
      19    H13     18.393027   18.809457   23.771502 H          1 MOL1         0.0960
      20    C7      19.433165   19.583489   25.501349 C.3        1 MOL1         0.0172
      21    H14     19.980136   20.355073   24.953310 H          1 MOL1         0.0934
      22    H15     18.517509   20.031323   25.896903 H          1 MOL1         0.0934
      23    N1      20.282822   19.151903   26.680086 N.4        1 MOL1        -0.5956
      24    H16     21.172176   18.744894   26.374771 H          1 MOL1         0.3624
      25    H17     19.807732   18.447193   27.253217 H          1 MOL1         0.3624
      26    H18     20.506933   19.939639   27.297592 H          1 MOL1         0.3624
@<TRIPOS>BOND
    1     1     2    1
    2     1     3    1
    3     1     4    1
    4     1     5    1
    5     5     6    1
    6     5     7    1
    7     5     8    1
    8     8     9    1
    9     8    10    1
   10     8    11    1
   11    11    12    1
   12    11    13    1
   13    11    14    1
   14    14    15    1
   15    14    16    1
   16    14    17    1
   17    17    18    1
   18    17    19    1
   19    17    20    1
   20    20    21    1
   21    20    22    1
   22    20    23    1
   23    23    24    1
   24    23    25    1
   25    23    26    1
@<TRIPOS>SUBSTRUCTURE
       1 MOL1            1 RESIDUE      1      MOL     
@<SCITEGIC>MOL_PROPERTY
VM2 Rank
SciTegic.value.IntegerValue
84

@<SCITEGIC>MOL_PROPERTY
Conf_Id
SciTegic.value.IntegerValue
1519

@<SCITEGIC>MOL_PROPERTY
Probability
SciTegic.value.DoubleValue
0.20

@<SCITEGIC>MOL_PROPERTY
Sum Probability
SciTegic.value.DoubleValue
96.64

@<SCITEGIC>MOL_PROPERTY
Delta G
SciTegic.value.DoubleValue
2.129

@<SCITEGIC>MOL_PROPERTY
G
SciTegic.value.DoubleValue
50.390

@<SCITEGIC>MOL_PROPERTY
E
SciTegic.value.DoubleValue
17.161

@<SCITEGIC>MOL_PROPERTY
-TS
SciTegic.value.DoubleValue
33.229

@<SCITEGIC>MOL_PROPERTY
U+W
SciTegic.value.DoubleValue
-4.301

@<SCITEGIC>MOL_PROPERTY
U
SciTegic.value.DoubleValue
49.634

@<SCITEGIC>MOL_PROPERTY
W
SciTegic.value.DoubleValue
-53.935

@<SCITEGIC>MOL_PROPERTY
W(PB)
SciTegic.value.DoubleValue
-56.178

@<SCITEGIC>MOL_PROPERTY
W(SA)
SciTegic.value.DoubleValue
2.243

@<SCITEGIC>MOL_PROPERTY
Valence
SciTegic.value.DoubleValue
3.474

@<SCITEGIC>MOL_PROPERTY
Coulomb
SciTegic.value.DoubleValue
45.628

@<SCITEGIC>MOL_PROPERTY
VdW
SciTegic.value.DoubleValue
0.532

@<SCITEGIC>MOL_PROPERTY
VdW6
SciTegic.value.DoubleValue
-9.030

@<SCITEGIC>MOL_PROPERTY
VdW12
SciTegic.value.DoubleValue
9.562

@<SCITEGIC>MOL_PROPERTY
Bond
SciTegic.value.DoubleValue
0.265

@<SCITEGIC>MOL_PROPERTY
Angle
SciTegic.value.DoubleValue
1.304

@<SCITEGIC>MOL_PROPERTY
Pdih
SciTegic.value.DoubleValue
1.905

@<SCITEGIC>MOL_PROPERTY
Idih
SciTegic.value.DoubleValue
0.000

@<SCITEGIC>MOL_PROPERTY
Tether
SciTegic.value.DoubleValue
0.000

@<TRIPOS>MOLECULE
guest-s14_vm2.mol2 : vm2 ligand conformer 85
          26          25           1
SMALL
USER_CHARGES
 
@<TRIPOS>ATOM
       1    C1      19.874789   19.909661   19.764466 C.3        1 MOL1        -0.2400
       2    H1      19.034613   19.441067   19.235580 H          1 MOL1         0.0971
       3    H2      19.535227   20.877157   20.156696 H          1 MOL1         0.0971
       4    H3      20.668497   20.102976   19.031211 H          1 MOL1         0.0971
       5    C2      20.391738   19.001636   20.900353 C.3        1 MOL1        -0.1385
       6    H4      21.254350   19.484634   21.378270 H          1 MOL1         0.0960
       7    H5      20.751893   18.054544   20.474998 H          1 MOL1         0.0960
       8    C3      19.290757   18.717448   21.948958 C.3        1 MOL1        -0.1409
       9    H6      18.954621   19.660643   22.399373 H          1 MOL1         0.0960
      10    H7      18.412985   18.297374   21.438838 H          1 MOL1         0.0960
      11    C4      19.731456   17.726558   23.057073 C.3        1 MOL1        -0.1409
      12    H8      19.967974   16.758636   22.594123 H          1 MOL1         0.0960
      13    H9      18.876932   17.535250   23.719797 H          1 MOL1         0.0960
      14    C5      20.949287   18.181704   23.905777 C.3        1 MOL1        -0.1409
      15    H10     21.156632   17.414164   24.663368 H          1 MOL1         0.0960
      16    H11     21.845977   18.213374   23.272842 H          1 MOL1         0.0960
      17    C6      20.777520   19.555630   24.604911 C.3        1 MOL1        -0.1450
      18    H12     20.728320   20.350243   23.849457 H          1 MOL1         0.0960
      19    H13     21.670566   19.768949   25.207066 H          1 MOL1         0.0960
      20    C7      19.528622   19.646530   25.504413 C.3        1 MOL1         0.0172
      21    H14     19.458025   20.651952   25.928189 H          1 MOL1         0.0934
      22    H15     18.630755   19.464785   24.908030 H          1 MOL1         0.0934
      23    N1      19.536832   18.659833   26.655049 N.4        1 MOL1        -0.5956
      24    H16     20.343961   18.801040   27.271012 H          1 MOL1         0.3624
      25    H17     19.575919   17.691880   26.321337 H          1 MOL1         0.3624
      26    H18     18.696539   18.745361   27.236994 H          1 MOL1         0.3624
@<TRIPOS>BOND
    1     1     2    1
    2     1     3    1
    3     1     4    1
    4     1     5    1
    5     5     6    1
    6     5     7    1
    7     5     8    1
    8     8     9    1
    9     8    10    1
   10     8    11    1
   11    11    12    1
   12    11    13    1
   13    11    14    1
   14    14    15    1
   15    14    16    1
   16    14    17    1
   17    17    18    1
   18    17    19    1
   19    17    20    1
   20    20    21    1
   21    20    22    1
   22    20    23    1
   23    23    24    1
   24    23    25    1
   25    23    26    1
@<TRIPOS>SUBSTRUCTURE
       1 MOL1            1 RESIDUE      1      MOL     
@<SCITEGIC>MOL_PROPERTY
VM2 Rank
SciTegic.value.IntegerValue
85

@<SCITEGIC>MOL_PROPERTY
Conf_Id
SciTegic.value.IntegerValue
796

@<SCITEGIC>MOL_PROPERTY
Probability
SciTegic.value.DoubleValue
0.20

@<SCITEGIC>MOL_PROPERTY
Sum Probability
SciTegic.value.DoubleValue
96.84

@<SCITEGIC>MOL_PROPERTY
Delta G
SciTegic.value.DoubleValue
2.134

@<SCITEGIC>MOL_PROPERTY
G
SciTegic.value.DoubleValue
50.395

@<SCITEGIC>MOL_PROPERTY
E
SciTegic.value.DoubleValue
17.165

@<SCITEGIC>MOL_PROPERTY
-TS
SciTegic.value.DoubleValue
33.230

@<SCITEGIC>MOL_PROPERTY
U+W
SciTegic.value.DoubleValue
-4.297

@<SCITEGIC>MOL_PROPERTY
U
SciTegic.value.DoubleValue
49.635

@<SCITEGIC>MOL_PROPERTY
W
SciTegic.value.DoubleValue
-53.931

@<SCITEGIC>MOL_PROPERTY
W(PB)
SciTegic.value.DoubleValue
-56.188

@<SCITEGIC>MOL_PROPERTY
W(SA)
SciTegic.value.DoubleValue
2.257

@<SCITEGIC>MOL_PROPERTY
Valence
SciTegic.value.DoubleValue
3.474

@<SCITEGIC>MOL_PROPERTY
Coulomb
SciTegic.value.DoubleValue
45.628

@<SCITEGIC>MOL_PROPERTY
VdW
SciTegic.value.DoubleValue
0.532

@<SCITEGIC>MOL_PROPERTY
VdW6
SciTegic.value.DoubleValue
-9.030

@<SCITEGIC>MOL_PROPERTY
VdW12
SciTegic.value.DoubleValue
9.562

@<SCITEGIC>MOL_PROPERTY
Bond
SciTegic.value.DoubleValue
0.265

@<SCITEGIC>MOL_PROPERTY
Angle
SciTegic.value.DoubleValue
1.304

@<SCITEGIC>MOL_PROPERTY
Pdih
SciTegic.value.DoubleValue
1.905

@<SCITEGIC>MOL_PROPERTY
Idih
SciTegic.value.DoubleValue
0.000

@<SCITEGIC>MOL_PROPERTY
Tether
SciTegic.value.DoubleValue
0.000

@<TRIPOS>MOLECULE
guest-s14_vm2.mol2 : vm2 ligand conformer 86
          26          25           1
SMALL
USER_CHARGES
 
@<TRIPOS>ATOM
       1    C1      19.212056   19.718706   20.175086 C.3        1 MOL1        -0.2400
       2    H1      18.341763   19.522310   20.813532 H          1 MOL1         0.0971
       3    H2      19.076676   20.711602   19.727155 H          1 MOL1         0.0971
       4    H3      19.215790   18.980888   19.362354 H          1 MOL1         0.0971
       5    C2      20.529471   19.663107   20.981006 C.3        1 MOL1        -0.1385
       6    H4      20.497996   20.400323   21.794358 H          1 MOL1         0.0960
       7    H5      21.357306   19.971259   20.327311 H          1 MOL1         0.0960
       8    C3      20.844369   18.254924   21.546436 C.3        1 MOL1        -0.1409
       9    H6      20.971834   17.557442   20.707207 H          1 MOL1         0.0960
      10    H7      21.817682   18.283387   22.053769 H          1 MOL1         0.0960
      11    C4      19.774817   17.675856   22.511590 C.3        1 MOL1        -0.1409
      12    H8      20.117637   16.694313   22.866649 H          1 MOL1         0.0960
      13    H9      18.851194   17.479041   21.951118 H          1 MOL1         0.0960
      14    C5      19.436779   18.562500   23.737968 C.3        1 MOL1        -0.1409
      15    H10     19.000608   19.513342   23.404189 H          1 MOL1         0.0960
      16    H11     18.652450   18.056694   24.316191 H          1 MOL1         0.0960
      17    C6      20.654630   18.838576   24.654790 C.3        1 MOL1        -0.1450
      18    H12     21.428685   19.374616   24.091609 H          1 MOL1         0.0960
      19    H13     21.102428   17.890749   24.981558 H          1 MOL1         0.0960
      20    C7      20.289673   19.687732   25.887699 C.3        1 MOL1         0.0172
      21    H14     21.200122   19.930509   26.442391 H          1 MOL1         0.0934
      22    H15     19.826813   20.624443   25.565648 H          1 MOL1         0.0934
      23    N1      19.339206   18.997599   26.846424 N.4        1 MOL1        -0.5956
      24    H16     19.128750   19.583585   27.661652 H          1 MOL1         0.3624
      25    H17     19.729118   18.118713   27.202108 H          1 MOL1         0.3624
      26    H18     18.444953   18.773460   26.399342 H          1 MOL1         0.3624
@<TRIPOS>BOND
    1     1     2    1
    2     1     3    1
    3     1     4    1
    4     1     5    1
    5     5     6    1
    6     5     7    1
    7     5     8    1
    8     8     9    1
    9     8    10    1
   10     8    11    1
   11    11    12    1
   12    11    13    1
   13    11    14    1
   14    14    15    1
   15    14    16    1
   16    14    17    1
   17    17    18    1
   18    17    19    1
   19    17    20    1
   20    20    21    1
   21    20    22    1
   22    20    23    1
   23    23    24    1
   24    23    25    1
   25    23    26    1
@<TRIPOS>SUBSTRUCTURE
       1 MOL1            1 RESIDUE      1      MOL     
@<SCITEGIC>MOL_PROPERTY
VM2 Rank
SciTegic.value.IntegerValue
86

@<SCITEGIC>MOL_PROPERTY
Conf_Id
SciTegic.value.IntegerValue
477

@<SCITEGIC>MOL_PROPERTY
Probability
SciTegic.value.DoubleValue
0.19

@<SCITEGIC>MOL_PROPERTY
Sum Probability
SciTegic.value.DoubleValue
97.04

@<SCITEGIC>MOL_PROPERTY
Delta G
SciTegic.value.DoubleValue
2.164

@<SCITEGIC>MOL_PROPERTY
G
SciTegic.value.DoubleValue
50.425

@<SCITEGIC>MOL_PROPERTY
E
SciTegic.value.DoubleValue
17.208

@<SCITEGIC>MOL_PROPERTY
-TS
SciTegic.value.DoubleValue
33.217

@<SCITEGIC>MOL_PROPERTY
U+W
SciTegic.value.DoubleValue
-4.254

@<SCITEGIC>MOL_PROPERTY
U
SciTegic.value.DoubleValue
49.638

@<SCITEGIC>MOL_PROPERTY
W
SciTegic.value.DoubleValue
-53.891

@<SCITEGIC>MOL_PROPERTY
W(PB)
SciTegic.value.DoubleValue
-56.131

@<SCITEGIC>MOL_PROPERTY
W(SA)
SciTegic.value.DoubleValue
2.239

@<SCITEGIC>MOL_PROPERTY
Valence
SciTegic.value.DoubleValue
3.691

@<SCITEGIC>MOL_PROPERTY
Coulomb
SciTegic.value.DoubleValue
45.199

@<SCITEGIC>MOL_PROPERTY
VdW
SciTegic.value.DoubleValue
0.747

@<SCITEGIC>MOL_PROPERTY
VdW6
SciTegic.value.DoubleValue
-8.826

@<SCITEGIC>MOL_PROPERTY
VdW12
SciTegic.value.DoubleValue
9.573

@<SCITEGIC>MOL_PROPERTY
Bond
SciTegic.value.DoubleValue
0.278

@<SCITEGIC>MOL_PROPERTY
Angle
SciTegic.value.DoubleValue
1.445

@<SCITEGIC>MOL_PROPERTY
Pdih
SciTegic.value.DoubleValue
1.969

@<SCITEGIC>MOL_PROPERTY
Idih
SciTegic.value.DoubleValue
0.000

@<SCITEGIC>MOL_PROPERTY
Tether
SciTegic.value.DoubleValue
0.000

@<TRIPOS>MOLECULE
guest-s14_vm2.mol2 : vm2 ligand conformer 87
          26          25           1
SMALL
USER_CHARGES
 
@<TRIPOS>ATOM
       1    C1      19.269840   19.273508   19.994054 C.3        1 MOL1        -0.2400
       2    H1      18.478142   19.443838   20.734262 H          1 MOL1         0.0971
       3    H2      19.644870   20.249517   19.659841 H          1 MOL1         0.0971
       4    H3      18.812295   18.775152   19.129685 H          1 MOL1         0.0971
       5    C2      20.411546   18.409393   20.575474 C.3        1 MOL1        -0.1385
       6    H4      21.116679   18.166124   19.768460 H          1 MOL1         0.0960
       7    H5      20.009639   17.447768   20.921327 H          1 MOL1         0.0960
       8    C3      21.192876   19.107069   21.718163 C.3        1 MOL1        -0.1409
       9    H6      21.997501   18.439352   22.055504 H          1 MOL1         0.0960
      10    H7      21.692476   19.997405   21.312149 H          1 MOL1         0.0960
      11    C4      20.342941   19.531766   22.943803 C.3        1 MOL1        -0.1409
      12    H8      19.599458   20.281184   22.641874 H          1 MOL1         0.0960
      13    H9      21.008300   20.037114   23.655869 H          1 MOL1         0.0960
      14    C5      19.635573   18.346029   23.647626 C.3        1 MOL1        -0.1409
      15    H10     18.948164   17.859503   22.943546 H          1 MOL1         0.0960
      16    H11     20.375815   17.585163   23.928363 H          1 MOL1         0.0960
      17    C6      18.820065   18.775191   24.893354 C.3        1 MOL1        -0.1450
      18    H12     18.302362   17.899250   25.306263 H          1 MOL1         0.0960
      19    H13     18.034212   19.478139   24.586524 H          1 MOL1         0.0960
      20    C7      19.663789   19.430665   26.005656 C.3        1 MOL1         0.0172
      21    H14     20.143360   20.335082   25.622891 H          1 MOL1         0.0934
      22    H15     19.010834   19.718391   26.834120 H          1 MOL1         0.0934
      23    N1      20.744371   18.525379   26.562870 N.4        1 MOL1        -0.5956
      24    H16     21.282269   18.985769   27.305065 H          1 MOL1         0.3624
      25    H17     21.411065   18.243587   25.837527 H          1 MOL1         0.3624
      26    H18     20.352106   17.667701   26.964598 H          1 MOL1         0.3624
@<TRIPOS>BOND
    1     1     2    1
    2     1     3    1
    3     1     4    1
    4     1     5    1
    5     5     6    1
    6     5     7    1
    7     5     8    1
    8     8     9    1
    9     8    10    1
   10     8    11    1
   11    11    12    1
   12    11    13    1
   13    11    14    1
   14    14    15    1
   15    14    16    1
   16    14    17    1
   17    17    18    1
   18    17    19    1
   19    17    20    1
   20    20    21    1
   21    20    22    1
   22    20    23    1
   23    23    24    1
   24    23    25    1
   25    23    26    1
@<TRIPOS>SUBSTRUCTURE
       1 MOL1            1 RESIDUE      1      MOL     
@<SCITEGIC>MOL_PROPERTY
VM2 Rank
SciTegic.value.IntegerValue
87

@<SCITEGIC>MOL_PROPERTY
Conf_Id
SciTegic.value.IntegerValue
530

@<SCITEGIC>MOL_PROPERTY
Probability
SciTegic.value.DoubleValue
0.18

@<SCITEGIC>MOL_PROPERTY
Sum Probability
SciTegic.value.DoubleValue
97.22

@<SCITEGIC>MOL_PROPERTY
Delta G
SciTegic.value.DoubleValue
2.205

@<SCITEGIC>MOL_PROPERTY
G
SciTegic.value.DoubleValue
50.466

@<SCITEGIC>MOL_PROPERTY
E
SciTegic.value.DoubleValue
17.411

@<SCITEGIC>MOL_PROPERTY
-TS
SciTegic.value.DoubleValue
33.055

@<SCITEGIC>MOL_PROPERTY
U+W
SciTegic.value.DoubleValue
-4.051

@<SCITEGIC>MOL_PROPERTY
U
SciTegic.value.DoubleValue
49.822

@<SCITEGIC>MOL_PROPERTY
W
SciTegic.value.DoubleValue
-53.873

@<SCITEGIC>MOL_PROPERTY
W(PB)
SciTegic.value.DoubleValue
-56.119

@<SCITEGIC>MOL_PROPERTY
W(SA)
SciTegic.value.DoubleValue
2.246

@<SCITEGIC>MOL_PROPERTY
Valence
SciTegic.value.DoubleValue
3.548

@<SCITEGIC>MOL_PROPERTY
Coulomb
SciTegic.value.DoubleValue
45.475

@<SCITEGIC>MOL_PROPERTY
VdW
SciTegic.value.DoubleValue
0.799

@<SCITEGIC>MOL_PROPERTY
VdW6
SciTegic.value.DoubleValue
-8.640

@<SCITEGIC>MOL_PROPERTY
VdW12
SciTegic.value.DoubleValue
9.439

@<SCITEGIC>MOL_PROPERTY
Bond
SciTegic.value.DoubleValue
0.263

@<SCITEGIC>MOL_PROPERTY
Angle
SciTegic.value.DoubleValue
1.337

@<SCITEGIC>MOL_PROPERTY
Pdih
SciTegic.value.DoubleValue
1.948

@<SCITEGIC>MOL_PROPERTY
Idih
SciTegic.value.DoubleValue
0.000

@<SCITEGIC>MOL_PROPERTY
Tether
SciTegic.value.DoubleValue
0.000

@<TRIPOS>MOLECULE
guest-s14_vm2.mol2 : vm2 ligand conformer 88
          26          25           1
SMALL
USER_CHARGES
 
@<TRIPOS>ATOM
       1    C1      19.901133   18.394632   19.698520 C.3        1 MOL1        -0.2400
       2    H1      20.405417   17.984246   18.814098 H          1 MOL1         0.0971
       3    H2      19.240241   17.612796   20.092391 H          1 MOL1         0.0971
       4    H3      19.279807   19.237615   19.369365 H          1 MOL1         0.0971
       5    C2      20.938972   18.846604   20.750994 C.3        1 MOL1        -0.1385
       6    H4      21.652861   19.530321   20.270696 H          1 MOL1         0.0960
       7    H5      21.524061   17.980252   21.089863 H          1 MOL1         0.0960
       8    C3      20.310729   19.563818   21.970451 C.3        1 MOL1        -0.1409
       9    H6      21.127333   19.960876   22.587027 H          1 MOL1         0.0960
      10    H7      19.730433   20.431264   21.627272 H          1 MOL1         0.0960
      11    C4      19.412535   18.641405   22.833108 C.3        1 MOL1        -0.1409
      12    H8      19.991191   17.770803   23.168902 H          1 MOL1         0.0960
      13    H9      18.597660   18.243876   22.214609 H          1 MOL1         0.0960
      14    C5      18.776777   19.360133   24.051566 C.3        1 MOL1        -0.1409
      15    H10     18.133346   20.174645   23.691382 H          1 MOL1         0.0960
      16    H11     18.106240   18.658057   24.565101 H          1 MOL1         0.0960
      17    C6      19.789188   19.938138   25.075319 C.3        1 MOL1        -0.1450
      18    H12     19.238717   20.371784   25.920685 H          1 MOL1         0.0960
      19    H13     20.341040   20.770587   24.620680 H          1 MOL1         0.0960
      20    C7      20.799615   18.903412   25.609730 C.3        1 MOL1         0.0172
      21    H14     21.378561   18.490553   24.779489 H          1 MOL1         0.0934
      22    H15     21.493621   19.394269   26.297387 H          1 MOL1         0.0934
      23    N1      20.152050   17.750858   26.351311 N.4        1 MOL1        -0.5956
      24    H16     20.847407   17.080521   26.696572 H          1 MOL1         0.3624
      25    H17     19.504619   17.232054   25.750032 H          1 MOL1         0.3624
      26    H18     19.617798   18.074309   27.164199 H          1 MOL1         0.3624
@<TRIPOS>BOND
    1     1     2    1
    2     1     3    1
    3     1     4    1
    4     1     5    1
    5     5     6    1
    6     5     7    1
    7     5     8    1
    8     8     9    1
    9     8    10    1
   10     8    11    1
   11    11    12    1
   12    11    13    1
   13    11    14    1
   14    14    15    1
   15    14    16    1
   16    14    17    1
   17    17    18    1
   18    17    19    1
   19    17    20    1
   20    20    21    1
   21    20    22    1
   22    20    23    1
   23    23    24    1
   24    23    25    1
   25    23    26    1
@<TRIPOS>SUBSTRUCTURE
       1 MOL1            1 RESIDUE      1      MOL     
@<SCITEGIC>MOL_PROPERTY
VM2 Rank
SciTegic.value.IntegerValue
88

@<SCITEGIC>MOL_PROPERTY
Conf_Id
SciTegic.value.IntegerValue
540

@<SCITEGIC>MOL_PROPERTY
Probability
SciTegic.value.DoubleValue
0.18

@<SCITEGIC>MOL_PROPERTY
Sum Probability
SciTegic.value.DoubleValue
97.40

@<SCITEGIC>MOL_PROPERTY
Delta G
SciTegic.value.DoubleValue
2.208

@<SCITEGIC>MOL_PROPERTY
G
SciTegic.value.DoubleValue
50.469

@<SCITEGIC>MOL_PROPERTY
E
SciTegic.value.DoubleValue
17.492

@<SCITEGIC>MOL_PROPERTY
-TS
SciTegic.value.DoubleValue
32.977

@<SCITEGIC>MOL_PROPERTY
U+W
SciTegic.value.DoubleValue
-3.970

@<SCITEGIC>MOL_PROPERTY
U
SciTegic.value.DoubleValue
49.925

@<SCITEGIC>MOL_PROPERTY
W
SciTegic.value.DoubleValue
-53.895

@<SCITEGIC>MOL_PROPERTY
W(PB)
SciTegic.value.DoubleValue
-56.135

@<SCITEGIC>MOL_PROPERTY
W(SA)
SciTegic.value.DoubleValue
2.241

@<SCITEGIC>MOL_PROPERTY
Valence
SciTegic.value.DoubleValue
3.593

@<SCITEGIC>MOL_PROPERTY
Coulomb
SciTegic.value.DoubleValue
45.559

@<SCITEGIC>MOL_PROPERTY
VdW
SciTegic.value.DoubleValue
0.774

@<SCITEGIC>MOL_PROPERTY
VdW6
SciTegic.value.DoubleValue
-8.638

@<SCITEGIC>MOL_PROPERTY
VdW12
SciTegic.value.DoubleValue
9.411

@<SCITEGIC>MOL_PROPERTY
Bond
SciTegic.value.DoubleValue
0.265

@<SCITEGIC>MOL_PROPERTY
Angle
SciTegic.value.DoubleValue
1.266

@<SCITEGIC>MOL_PROPERTY
Pdih
SciTegic.value.DoubleValue
2.061

@<SCITEGIC>MOL_PROPERTY
Idih
SciTegic.value.DoubleValue
0.000

@<SCITEGIC>MOL_PROPERTY
Tether
SciTegic.value.DoubleValue
0.000

@<TRIPOS>MOLECULE
guest-s14_vm2.mol2 : vm2 ligand conformer 89
          26          25           1
SMALL
USER_CHARGES
 
@<TRIPOS>ATOM
       1    C1      20.134455   19.843523   20.022882 C.3        1 MOL1        -0.2400
       2    H1      20.255154   20.615043   20.793529 H          1 MOL1         0.0971
       3    H2      20.812093   20.093352   19.196304 H          1 MOL1         0.0971
       4    H3      19.106237   19.894821   19.641992 H          1 MOL1         0.0971
       5    C2      20.451877   18.436134   20.576723 C.3        1 MOL1        -0.1385
       6    H4      21.476895   18.414850   20.970105 H          1 MOL1         0.0960
       7    H5      20.435370   17.717358   19.745606 H          1 MOL1         0.0960
       8    C3      19.450894   17.959129   21.659988 C.3        1 MOL1        -0.1409
       9    H6      18.455697   17.864463   21.204173 H          1 MOL1         0.0960
      10    H7      19.731838   16.946269   21.979756 H          1 MOL1         0.0960
      11    C4      19.338375   18.869618   22.910305 C.3        1 MOL1        -0.1409
      12    H8      18.579442   18.436479   23.574781 H          1 MOL1         0.0960
      13    H9      18.956906   19.857579   22.620535 H          1 MOL1         0.0960
      14    C5      20.672649   19.029013   23.682325 C.3        1 MOL1        -0.1409
      15    H10     21.066799   18.040152   23.951566 H          1 MOL1         0.0960
      16    H11     21.422664   19.489444   23.026241 H          1 MOL1         0.0960
      17    C6      20.541590   19.909185   24.950865 C.3        1 MOL1        -0.1450
      18    H12     20.219967   20.917886   24.659450 H          1 MOL1         0.0960
      19    H13     21.530301   20.025594   25.414205 H          1 MOL1         0.0960
      20    C7      19.555727   19.359640   26.001962 C.3        1 MOL1         0.0172
      21    H14     19.509929   20.047490   26.850640 H          1 MOL1         0.0934
      22    H15     18.554497   19.288504   25.569587 H          1 MOL1         0.0934
      23    N1      19.935433   17.992759   26.535950 N.4        1 MOL1        -0.5956
      24    H16     19.266294   17.658145   27.237684 H          1 MOL1         0.3624
      25    H17     20.858451   18.001664   26.981850 H          1 MOL1         0.3624
      26    H18     19.965668   17.291512   25.789393 H          1 MOL1         0.3624
@<TRIPOS>BOND
    1     1     2    1
    2     1     3    1
    3     1     4    1
    4     1     5    1
    5     5     6    1
    6     5     7    1
    7     5     8    1
    8     8     9    1
    9     8    10    1
   10     8    11    1
   11    11    12    1
   12    11    13    1
   13    11    14    1
   14    14    15    1
   15    14    16    1
   16    14    17    1
   17    17    18    1
   18    17    19    1
   19    17    20    1
   20    20    21    1
   21    20    22    1
   22    20    23    1
   23    23    24    1
   24    23    25    1
   25    23    26    1
@<TRIPOS>SUBSTRUCTURE
       1 MOL1            1 RESIDUE      1      MOL     
@<SCITEGIC>MOL_PROPERTY
VM2 Rank
SciTegic.value.IntegerValue
89

@<SCITEGIC>MOL_PROPERTY
Conf_Id
SciTegic.value.IntegerValue
409

@<SCITEGIC>MOL_PROPERTY
Probability
SciTegic.value.DoubleValue
0.17

@<SCITEGIC>MOL_PROPERTY
Sum Probability
SciTegic.value.DoubleValue
97.57

@<SCITEGIC>MOL_PROPERTY
Delta G
SciTegic.value.DoubleValue
2.225

@<SCITEGIC>MOL_PROPERTY
G
SciTegic.value.DoubleValue
50.486

@<SCITEGIC>MOL_PROPERTY
E
SciTegic.value.DoubleValue
17.432

@<SCITEGIC>MOL_PROPERTY
-TS
SciTegic.value.DoubleValue
33.055

@<SCITEGIC>MOL_PROPERTY
U+W
SciTegic.value.DoubleValue
-4.030

@<SCITEGIC>MOL_PROPERTY
U
SciTegic.value.DoubleValue
49.822

@<SCITEGIC>MOL_PROPERTY
W
SciTegic.value.DoubleValue
-53.852

@<SCITEGIC>MOL_PROPERTY
W(PB)
SciTegic.value.DoubleValue
-56.097

@<SCITEGIC>MOL_PROPERTY
W(SA)
SciTegic.value.DoubleValue
2.246

@<SCITEGIC>MOL_PROPERTY
Valence
SciTegic.value.DoubleValue
3.548

@<SCITEGIC>MOL_PROPERTY
Coulomb
SciTegic.value.DoubleValue
45.475

@<SCITEGIC>MOL_PROPERTY
VdW
SciTegic.value.DoubleValue
0.799

@<SCITEGIC>MOL_PROPERTY
VdW6
SciTegic.value.DoubleValue
-8.640

@<SCITEGIC>MOL_PROPERTY
VdW12
SciTegic.value.DoubleValue
9.439

@<SCITEGIC>MOL_PROPERTY
Bond
SciTegic.value.DoubleValue
0.263

@<SCITEGIC>MOL_PROPERTY
Angle
SciTegic.value.DoubleValue
1.337

@<SCITEGIC>MOL_PROPERTY
Pdih
SciTegic.value.DoubleValue
1.948

@<SCITEGIC>MOL_PROPERTY
Idih
SciTegic.value.DoubleValue
0.000

@<SCITEGIC>MOL_PROPERTY
Tether
SciTegic.value.DoubleValue
0.000

@<TRIPOS>MOLECULE
guest-s14_vm2.mol2 : vm2 ligand conformer 90
          26          25           1
SMALL
USER_CHARGES
 
@<TRIPOS>ATOM
       1    C1      20.707138   18.925052   19.725625 C.3        1 MOL1        -0.2400
       2    H1      20.193567   19.838936   19.399942 H          1 MOL1         0.0971
       3    H2      21.666871   19.210324   20.173630 H          1 MOL1         0.0971
       4    H3      20.926312   18.326813   18.831760 H          1 MOL1         0.0971
       5    C2      19.834232   18.119102   20.714344 C.3        1 MOL1        -0.1385
       6    H4      20.383083   17.228936   21.052121 H          1 MOL1         0.0960
       7    H5      18.947696   17.749003   20.180611 H          1 MOL1         0.0960
       8    C3      19.366676   18.942266   21.939068 C.3        1 MOL1        -0.1409
       9    H6      18.814982   19.828511   21.596751 H          1 MOL1         0.0960
      10    H7      18.651813   18.330885   22.504618 H          1 MOL1         0.0960
      11    C4      20.527148   19.375618   22.870349 C.3        1 MOL1        -0.1409
      12    H8      21.241762   19.985421   22.302847 H          1 MOL1         0.0960
      13    H9      21.082833   18.489872   23.205336 H          1 MOL1         0.0960
      14    C5      20.061180   20.206102   24.094508 C.3        1 MOL1        -0.1409
      15    H10     20.945929   20.528178   24.659962 H          1 MOL1         0.0960
      16    H11     19.583752   21.129943   23.739902 H          1 MOL1         0.0960
      17    C6      19.084111   19.473985   25.051837 C.3        1 MOL1        -0.1450
      18    H12     18.123641   19.310801   24.546786 H          1 MOL1         0.0960
      19    H13     18.863747   20.124806   25.908331 H          1 MOL1         0.0960
      20    C7      19.610843   18.120684   25.569862 C.3        1 MOL1         0.0172
      21    H14     18.854918   17.656813   26.209282 H          1 MOL1         0.0934
      22    H15     19.800005   17.451411   24.726521 H          1 MOL1         0.0934
      23    N1      20.889674   18.236191   26.375406 N.4        1 MOL1        -0.5956
      24    H16     21.214834   17.322093   26.708235 H          1 MOL1         0.3624
      25    H17     20.765788   18.829670   27.202003 H          1 MOL1         0.3624
      26    H18     21.648917   18.643519   25.820882 H          1 MOL1         0.3624
@<TRIPOS>BOND
    1     1     2    1
    2     1     3    1
    3     1     4    1
    4     1     5    1
    5     5     6    1
    6     5     7    1
    7     5     8    1
    8     8     9    1
    9     8    10    1
   10     8    11    1
   11    11    12    1
   12    11    13    1
   13    11    14    1
   14    14    15    1
   15    14    16    1
   16    14    17    1
   17    17    18    1
   18    17    19    1
   19    17    20    1
   20    20    21    1
   21    20    22    1
   22    20    23    1
   23    23    24    1
   24    23    25    1
   25    23    26    1
@<TRIPOS>SUBSTRUCTURE
       1 MOL1            1 RESIDUE      1      MOL     
@<SCITEGIC>MOL_PROPERTY
VM2 Rank
SciTegic.value.IntegerValue
90

@<SCITEGIC>MOL_PROPERTY
Conf_Id
SciTegic.value.IntegerValue
1513

@<SCITEGIC>MOL_PROPERTY
Probability
SciTegic.value.DoubleValue
0.17

@<SCITEGIC>MOL_PROPERTY
Sum Probability
SciTegic.value.DoubleValue
97.74

@<SCITEGIC>MOL_PROPERTY
Delta G
SciTegic.value.DoubleValue
2.227

@<SCITEGIC>MOL_PROPERTY
G
SciTegic.value.DoubleValue
50.488

@<SCITEGIC>MOL_PROPERTY
E
SciTegic.value.DoubleValue
17.511

@<SCITEGIC>MOL_PROPERTY
-TS
SciTegic.value.DoubleValue
32.977

@<SCITEGIC>MOL_PROPERTY
U+W
SciTegic.value.DoubleValue
-3.951

@<SCITEGIC>MOL_PROPERTY
U
SciTegic.value.DoubleValue
49.926

@<SCITEGIC>MOL_PROPERTY
W
SciTegic.value.DoubleValue
-53.877

@<SCITEGIC>MOL_PROPERTY
W(PB)
SciTegic.value.DoubleValue
-56.152

@<SCITEGIC>MOL_PROPERTY
W(SA)
SciTegic.value.DoubleValue
2.275

@<SCITEGIC>MOL_PROPERTY
Valence
SciTegic.value.DoubleValue
3.593

@<SCITEGIC>MOL_PROPERTY
Coulomb
SciTegic.value.DoubleValue
45.559

@<SCITEGIC>MOL_PROPERTY
VdW
SciTegic.value.DoubleValue
0.774

@<SCITEGIC>MOL_PROPERTY
VdW6
SciTegic.value.DoubleValue
-8.638

@<SCITEGIC>MOL_PROPERTY
VdW12
SciTegic.value.DoubleValue
9.412

@<SCITEGIC>MOL_PROPERTY
Bond
SciTegic.value.DoubleValue
0.265

@<SCITEGIC>MOL_PROPERTY
Angle
SciTegic.value.DoubleValue
1.266

@<SCITEGIC>MOL_PROPERTY
Pdih
SciTegic.value.DoubleValue
2.061

@<SCITEGIC>MOL_PROPERTY
Idih
SciTegic.value.DoubleValue
0.000

@<SCITEGIC>MOL_PROPERTY
Tether
SciTegic.value.DoubleValue
0.000

@<TRIPOS>MOLECULE
guest-s14_vm2.mol2 : vm2 ligand conformer 91
          26          25           1
SMALL
USER_CHARGES
 
@<TRIPOS>ATOM
       1    C1      20.431468   19.214745   19.895416 C.3        1 MOL1        -0.2400
       2    H1      20.473152   20.248869   20.259304 H          1 MOL1         0.0971
       3    H2      21.272107   19.073238   19.203954 H          1 MOL1         0.0971
       4    H3      19.502132   19.087879   19.325187 H          1 MOL1         0.0971
       5    C2      20.511201   18.201381   21.059401 C.3        1 MOL1        -0.1385
       6    H4      21.440848   18.357275   21.622721 H          1 MOL1         0.0960
       7    H5      20.578502   17.187320   20.641401 H          1 MOL1         0.0960
       8    C3      19.290318   18.262849   22.012089 C.3        1 MOL1        -0.1409
       9    H6      18.384776   18.010673   21.443413 H          1 MOL1         0.0960
      10    H7      19.389873   17.475359   22.770794 H          1 MOL1         0.0960
      11    C4      19.069728   19.630127   22.713322 C.3        1 MOL1        -0.1409
      12    H8      18.185095   19.555435   23.359769 H          1 MOL1         0.0960
      13    H9      18.812570   20.386310   21.959798 H          1 MOL1         0.0960
      14    C5      20.273194   20.145313   23.547697 C.3        1 MOL1        -0.1409
      15    H10     21.114821   20.369010   22.878772 H          1 MOL1         0.0960
      16    H11     19.996458   21.104562   24.006499 H          1 MOL1         0.0960
      17    C6      20.752361   19.179212   24.659365 C.3        1 MOL1        -0.1450
      18    H12     21.593818   19.641553   25.192198 H          1 MOL1         0.0960
      19    H13     21.140626   18.255119   24.212627 H          1 MOL1         0.0960
      20    C7      19.641491   18.839650   25.670251 C.3        1 MOL1         0.0172
      21    H14     19.263987   19.759590   26.124693 H          1 MOL1         0.0934
      22    H15     18.813741   18.344475   25.155933 H          1 MOL1         0.0934
      23    N1      20.111238   17.925722   26.783459 N.4        1 MOL1        -0.5956
      24    H16     20.454953   17.029660   26.422987 H          1 MOL1         0.3624
      25    H17     19.356749   17.712213   27.444870 H          1 MOL1         0.3624
      26    H18     20.873372   18.345354   27.325854 H          1 MOL1         0.3624
@<TRIPOS>BOND
    1     1     2    1
    2     1     3    1
    3     1     4    1
    4     1     5    1
    5     5     6    1
    6     5     7    1
    7     5     8    1
    8     8     9    1
    9     8    10    1
   10     8    11    1
   11    11    12    1
   12    11    13    1
   13    11    14    1
   14    14    15    1
   15    14    16    1
   16    14    17    1
   17    17    18    1
   18    17    19    1
   19    17    20    1
   20    20    21    1
   21    20    22    1
   22    20    23    1
   23    23    24    1
   24    23    25    1
   25    23    26    1
@<TRIPOS>SUBSTRUCTURE
       1 MOL1            1 RESIDUE      1      MOL     
@<SCITEGIC>MOL_PROPERTY
VM2 Rank
SciTegic.value.IntegerValue
91

@<SCITEGIC>MOL_PROPERTY
Conf_Id
SciTegic.value.IntegerValue
1056

@<SCITEGIC>MOL_PROPERTY
Probability
SciTegic.value.DoubleValue
0.16

@<SCITEGIC>MOL_PROPERTY
Sum Probability
SciTegic.value.DoubleValue
97.91

@<SCITEGIC>MOL_PROPERTY
Delta G
SciTegic.value.DoubleValue
2.276

@<SCITEGIC>MOL_PROPERTY
G
SciTegic.value.DoubleValue
50.537

@<SCITEGIC>MOL_PROPERTY
E
SciTegic.value.DoubleValue
17.205

@<SCITEGIC>MOL_PROPERTY
-TS
SciTegic.value.DoubleValue
33.332

@<SCITEGIC>MOL_PROPERTY
U+W
SciTegic.value.DoubleValue
-4.257

@<SCITEGIC>MOL_PROPERTY
U
SciTegic.value.DoubleValue
49.824

@<SCITEGIC>MOL_PROPERTY
W
SciTegic.value.DoubleValue
-54.082

@<SCITEGIC>MOL_PROPERTY
W(PB)
SciTegic.value.DoubleValue
-56.299

@<SCITEGIC>MOL_PROPERTY
W(SA)
SciTegic.value.DoubleValue
2.217

@<SCITEGIC>MOL_PROPERTY
Valence
SciTegic.value.DoubleValue
3.796

@<SCITEGIC>MOL_PROPERTY
Coulomb
SciTegic.value.DoubleValue
45.507

@<SCITEGIC>MOL_PROPERTY
VdW
SciTegic.value.DoubleValue
0.521

@<SCITEGIC>MOL_PROPERTY
VdW6
SciTegic.value.DoubleValue
-9.173

@<SCITEGIC>MOL_PROPERTY
VdW12
SciTegic.value.DoubleValue
9.695

@<SCITEGIC>MOL_PROPERTY
Bond
SciTegic.value.DoubleValue
0.280

@<SCITEGIC>MOL_PROPERTY
Angle
SciTegic.value.DoubleValue
1.536

@<SCITEGIC>MOL_PROPERTY
Pdih
SciTegic.value.DoubleValue
1.980

@<SCITEGIC>MOL_PROPERTY
Idih
SciTegic.value.DoubleValue
0.000

@<SCITEGIC>MOL_PROPERTY
Tether
SciTegic.value.DoubleValue
0.000

@<TRIPOS>MOLECULE
guest-s14_vm2.mol2 : vm2 ligand conformer 92
          26          25           1
SMALL
USER_CHARGES
 
@<TRIPOS>ATOM
       1    C1      20.953571   19.891557   20.447960 C.3        1 MOL1        -0.2400
       2    H1      21.983903   20.151419   20.172825 H          1 MOL1         0.0971
       3    H2      20.367398   19.816272   19.522942 H          1 MOL1         0.0971
       4    H3      20.551050   20.720452   21.043329 H          1 MOL1         0.0971
       5    C2      20.921987   18.561724   21.234516 C.3        1 MOL1        -0.1385
       6    H4      21.504098   18.664470   22.159947 H          1 MOL1         0.0960
       7    H5      21.431569   17.788584   20.642772 H          1 MOL1         0.0960
       8    C3      19.487097   18.072021   21.555853 C.3        1 MOL1        -0.1409
       9    H6      18.959973   17.877553   20.611744 H          1 MOL1         0.0960
      10    H7      19.547384   17.100413   22.063827 H          1 MOL1         0.0960
      11    C4      18.631093   19.047611   22.407909 C.3        1 MOL1        -0.1409
      12    H8      17.651046   18.586048   22.590867 H          1 MOL1         0.0960
      13    H9      18.424306   19.953934   21.823335 H          1 MOL1         0.0960
      14    C5      19.254062   19.458173   23.766874 C.3        1 MOL1        -0.1409
      15    H10     20.182523   20.016765   23.593192 H          1 MOL1         0.0960
      16    H11     18.568145   20.156990   24.265389 H          1 MOL1         0.0960
      17    C6      19.520750   18.257862   24.708789 C.3        1 MOL1        -0.1450
      18    H12     20.272824   17.588093   24.272913 H          1 MOL1         0.0960
      19    H13     18.599967   17.669588   24.817296 H          1 MOL1         0.0960
      20    C7      19.987808   18.697402   26.109591 C.3        1 MOL1         0.0172
      21    H14     19.244991   19.366547   26.552126 H          1 MOL1         0.0934
      22    H15     20.081636   17.818586   26.753334 H          1 MOL1         0.0934
      23    N1      21.324631   19.412649   26.109508 N.4        1 MOL1        -0.5956
      24    H16     22.071401   18.823741   25.726979 H          1 MOL1         0.3624
      25    H17     21.611444   19.682658   27.056679 H          1 MOL1         0.3624
      26    H18     21.296039   20.269799   25.548869 H          1 MOL1         0.3624
@<TRIPOS>BOND
    1     1     2    1
    2     1     3    1
    3     1     4    1
    4     1     5    1
    5     5     6    1
    6     5     7    1
    7     5     8    1
    8     8     9    1
    9     8    10    1
   10     8    11    1
   11    11    12    1
   12    11    13    1
   13    11    14    1
   14    14    15    1
   15    14    16    1
   16    14    17    1
   17    17    18    1
   18    17    19    1
   19    17    20    1
   20    20    21    1
   21    20    22    1
   22    20    23    1
   23    23    24    1
   24    23    25    1
   25    23    26    1
@<TRIPOS>SUBSTRUCTURE
       1 MOL1            1 RESIDUE      1      MOL     
@<SCITEGIC>MOL_PROPERTY
VM2 Rank
SciTegic.value.IntegerValue
92

@<SCITEGIC>MOL_PROPERTY
Conf_Id
SciTegic.value.IntegerValue
573

@<SCITEGIC>MOL_PROPERTY
Probability
SciTegic.value.DoubleValue
0.16

@<SCITEGIC>MOL_PROPERTY
Sum Probability
SciTegic.value.DoubleValue
98.06

@<SCITEGIC>MOL_PROPERTY
Delta G
SciTegic.value.DoubleValue
2.287

@<SCITEGIC>MOL_PROPERTY
G
SciTegic.value.DoubleValue
50.548

@<SCITEGIC>MOL_PROPERTY
E
SciTegic.value.DoubleValue
17.317

@<SCITEGIC>MOL_PROPERTY
-TS
SciTegic.value.DoubleValue
33.231

@<SCITEGIC>MOL_PROPERTY
U+W
SciTegic.value.DoubleValue
-4.145

@<SCITEGIC>MOL_PROPERTY
U
SciTegic.value.DoubleValue
50.092

@<SCITEGIC>MOL_PROPERTY
W
SciTegic.value.DoubleValue
-54.237

@<SCITEGIC>MOL_PROPERTY
W(PB)
SciTegic.value.DoubleValue
-56.467

@<SCITEGIC>MOL_PROPERTY
W(SA)
SciTegic.value.DoubleValue
2.230

@<SCITEGIC>MOL_PROPERTY
Valence
SciTegic.value.DoubleValue
3.653

@<SCITEGIC>MOL_PROPERTY
Coulomb
SciTegic.value.DoubleValue
45.798

@<SCITEGIC>MOL_PROPERTY
VdW
SciTegic.value.DoubleValue
0.641

@<SCITEGIC>MOL_PROPERTY
VdW6
SciTegic.value.DoubleValue
-8.933

@<SCITEGIC>MOL_PROPERTY
VdW12
SciTegic.value.DoubleValue
9.574

@<SCITEGIC>MOL_PROPERTY
Bond
SciTegic.value.DoubleValue
0.273

@<SCITEGIC>MOL_PROPERTY
Angle
SciTegic.value.DoubleValue
1.380

@<SCITEGIC>MOL_PROPERTY
Pdih
SciTegic.value.DoubleValue
2.000

@<SCITEGIC>MOL_PROPERTY
Idih
SciTegic.value.DoubleValue
0.000

@<SCITEGIC>MOL_PROPERTY
Tether
SciTegic.value.DoubleValue
0.000

@<TRIPOS>MOLECULE
guest-s14_vm2.mol2 : vm2 ligand conformer 93
          26          25           1
SMALL
USER_CHARGES
 
@<TRIPOS>ATOM
       1    C1      18.884155   18.527395   20.378220 C.3        1 MOL1        -0.2400
       2    H1      18.253412   17.692226   20.047360 H          1 MOL1         0.0971
       3    H2      18.253313   19.205862   20.965822 H          1 MOL1         0.0971
       4    H3      19.227014   19.064401   19.484354 H          1 MOL1         0.0971
       5    C2      20.080944   18.007415   21.206133 C.3        1 MOL1        -0.1385
       6    H4      20.618310   17.252504   20.615434 H          1 MOL1         0.0960
       7    H5      19.714451   17.484989   22.099769 H          1 MOL1         0.0960
       8    C3      21.079648   19.121963   21.609057 C.3        1 MOL1        -0.1409
       9    H6      21.924506   18.667529   22.143283 H          1 MOL1         0.0960
      10    H7      21.509475   19.558396   20.697029 H          1 MOL1         0.0960
      11    C4      20.480432   20.266773   22.469789 C.3        1 MOL1        -0.1409
      12    H8      19.756535   20.832232   21.868011 H          1 MOL1         0.0960
      13    H9      21.280940   20.979093   22.712266 H          1 MOL1         0.0960
      14    C5      19.795392   19.814836   23.785050 C.3        1 MOL1        -0.1409
      15    H10     19.400081   20.705149   24.293399 H          1 MOL1         0.0960
      16    H11     18.925551   19.187967   23.551290 H          1 MOL1         0.0960
      17    C6      20.749097   19.067268   24.749759 C.3        1 MOL1        -0.1450
      18    H12     21.646398   19.677183   24.918681 H          1 MOL1         0.0960
      19    H13     21.088494   18.125550   24.300125 H          1 MOL1         0.0960
      20    C7      20.096991   18.769165   26.113387 C.3        1 MOL1         0.0172
      21    H14     20.837245   18.316253   26.778534 H          1 MOL1         0.0934
      22    H15     19.754345   19.701961   26.569301 H          1 MOL1         0.0934
      23    N1      18.914341   17.824185   26.029605 N.4        1 MOL1        -0.5956
      24    H16     18.509797   17.638517   26.953819 H          1 MOL1         0.3624
      25    H17     19.178972   16.917610   25.630980 H          1 MOL1         0.3624
      26    H18     18.164471   18.206109   25.445081 H          1 MOL1         0.3624
@<TRIPOS>BOND
    1     1     2    1
    2     1     3    1
    3     1     4    1
    4     1     5    1
    5     5     6    1
    6     5     7    1
    7     5     8    1
    8     8     9    1
    9     8    10    1
   10     8    11    1
   11    11    12    1
   12    11    13    1
   13    11    14    1
   14    14    15    1
   15    14    16    1
   16    14    17    1
   17    17    18    1
   18    17    19    1
   19    17    20    1
   20    20    21    1
   21    20    22    1
   22    20    23    1
   23    23    24    1
   24    23    25    1
   25    23    26    1
@<TRIPOS>SUBSTRUCTURE
       1 MOL1            1 RESIDUE      1      MOL     
@<SCITEGIC>MOL_PROPERTY
VM2 Rank
SciTegic.value.IntegerValue
93

@<SCITEGIC>MOL_PROPERTY
Conf_Id
SciTegic.value.IntegerValue
792

@<SCITEGIC>MOL_PROPERTY
Probability
SciTegic.value.DoubleValue
0.16

@<SCITEGIC>MOL_PROPERTY
Sum Probability
SciTegic.value.DoubleValue
98.22

@<SCITEGIC>MOL_PROPERTY
Delta G
SciTegic.value.DoubleValue
2.289

@<SCITEGIC>MOL_PROPERTY
G
SciTegic.value.DoubleValue
50.550

@<SCITEGIC>MOL_PROPERTY
E
SciTegic.value.DoubleValue
17.319

@<SCITEGIC>MOL_PROPERTY
-TS
SciTegic.value.DoubleValue
33.231

@<SCITEGIC>MOL_PROPERTY
U+W
SciTegic.value.DoubleValue
-4.142

@<SCITEGIC>MOL_PROPERTY
U
SciTegic.value.DoubleValue
50.091

@<SCITEGIC>MOL_PROPERTY
W
SciTegic.value.DoubleValue
-54.233

@<SCITEGIC>MOL_PROPERTY
W(PB)
SciTegic.value.DoubleValue
-56.461

@<SCITEGIC>MOL_PROPERTY
W(SA)
SciTegic.value.DoubleValue
2.228

@<SCITEGIC>MOL_PROPERTY
Valence
SciTegic.value.DoubleValue
3.653

@<SCITEGIC>MOL_PROPERTY
Coulomb
SciTegic.value.DoubleValue
45.797

@<SCITEGIC>MOL_PROPERTY
VdW
SciTegic.value.DoubleValue
0.641

@<SCITEGIC>MOL_PROPERTY
VdW6
SciTegic.value.DoubleValue
-8.932

@<SCITEGIC>MOL_PROPERTY
VdW12
SciTegic.value.DoubleValue
9.573

@<SCITEGIC>MOL_PROPERTY
Bond
SciTegic.value.DoubleValue
0.273

@<SCITEGIC>MOL_PROPERTY
Angle
SciTegic.value.DoubleValue
1.380

@<SCITEGIC>MOL_PROPERTY
Pdih
SciTegic.value.DoubleValue
2.000

@<SCITEGIC>MOL_PROPERTY
Idih
SciTegic.value.DoubleValue
0.000

@<SCITEGIC>MOL_PROPERTY
Tether
SciTegic.value.DoubleValue
0.000

@<TRIPOS>MOLECULE
guest-s14_vm2.mol2 : vm2 ligand conformer 94
          26          25           1
SMALL
USER_CHARGES
 
@<TRIPOS>ATOM
       1    C1      19.736126   18.756701   19.872207 C.3        1 MOL1        -0.2400
       2    H1      18.753337   19.115781   20.201979 H          1 MOL1         0.0971
       3    H2      20.244768   19.577347   19.349955 H          1 MOL1         0.0971
       4    H3      19.567385   17.950169   19.147051 H          1 MOL1         0.0971
       5    C2      20.581131   18.247479   21.061655 C.3        1 MOL1        -0.1385
       6    H4      21.505131   17.797927   20.672168 H          1 MOL1         0.0960
       7    H5      20.046042   17.438215   21.576094 H          1 MOL1         0.0960
       8    C3      20.960848   19.363481   22.067789 C.3        1 MOL1        -0.1409
       9    H6      21.609439   18.937688   22.844780 H          1 MOL1         0.0960
      10    H7      21.575154   20.112715   21.549843 H          1 MOL1         0.0960
      11    C4      19.759712   20.084670   22.736365 C.3        1 MOL1        -0.1409
      12    H8      19.201680   20.642684   21.972846 H          1 MOL1         0.0960
      13    H9      20.146367   20.847507   23.425298 H          1 MOL1         0.0960
      14    C5      18.774293   19.157650   23.497619 C.3        1 MOL1        -0.1409
      15    H10     17.981091   19.776615   23.939153 H          1 MOL1         0.0960
      16    H11     18.268879   18.493790   22.783698 H          1 MOL1         0.0960
      17    C6      19.421007   18.301966   24.614902 C.3        1 MOL1        -0.1450
      18    H12     20.137499   17.594129   24.179152 H          1 MOL1         0.0960
      19    H13     18.640593   17.695681   25.093536 H          1 MOL1         0.0960
      20    C7      20.122798   19.156768   25.686362 C.3        1 MOL1         0.0172
      21    H14     20.927182   19.736843   25.226611 H          1 MOL1         0.0934
      22    H15     19.405556   19.852926   26.129355 H          1 MOL1         0.0934
      23    N1      20.725085   18.330285   26.804101 N.4        1 MOL1        -0.5956
      24    H16     20.014571   17.779717   27.297232 H          1 MOL1         0.3624
      25    H17     21.187160   18.918381   27.506194 H          1 MOL1         0.3624
      26    H18     21.429342   17.671730   26.455772 H          1 MOL1         0.3624
@<TRIPOS>BOND
    1     1     2    1
    2     1     3    1
    3     1     4    1
    4     1     5    1
    5     5     6    1
    6     5     7    1
    7     5     8    1
    8     8     9    1
    9     8    10    1
   10     8    11    1
   11    11    12    1
   12    11    13    1
   13    11    14    1
   14    14    15    1
   15    14    16    1
   16    14    17    1
   17    17    18    1
   18    17    19    1
   19    17    20    1
   20    20    21    1
   21    20    22    1
   22    20    23    1
   23    23    24    1
   24    23    25    1
   25    23    26    1
@<TRIPOS>SUBSTRUCTURE
       1 MOL1            1 RESIDUE      1      MOL     
@<SCITEGIC>MOL_PROPERTY
VM2 Rank
SciTegic.value.IntegerValue
94

@<SCITEGIC>MOL_PROPERTY
Conf_Id
SciTegic.value.IntegerValue
176

@<SCITEGIC>MOL_PROPERTY
Probability
SciTegic.value.DoubleValue
0.15

@<SCITEGIC>MOL_PROPERTY
Sum Probability
SciTegic.value.DoubleValue
98.37

@<SCITEGIC>MOL_PROPERTY
Delta G
SciTegic.value.DoubleValue
2.314

@<SCITEGIC>MOL_PROPERTY
G
SciTegic.value.DoubleValue
50.575

@<SCITEGIC>MOL_PROPERTY
E
SciTegic.value.DoubleValue
17.243

@<SCITEGIC>MOL_PROPERTY
-TS
SciTegic.value.DoubleValue
33.332

@<SCITEGIC>MOL_PROPERTY
U+W
SciTegic.value.DoubleValue
-4.219

@<SCITEGIC>MOL_PROPERTY
U
SciTegic.value.DoubleValue
49.824

@<SCITEGIC>MOL_PROPERTY
W
SciTegic.value.DoubleValue
-54.043

@<SCITEGIC>MOL_PROPERTY
W(PB)
SciTegic.value.DoubleValue
-56.275

@<SCITEGIC>MOL_PROPERTY
W(SA)
SciTegic.value.DoubleValue
2.232

@<SCITEGIC>MOL_PROPERTY
Valence
SciTegic.value.DoubleValue
3.797

@<SCITEGIC>MOL_PROPERTY
Coulomb
SciTegic.value.DoubleValue
45.507

@<SCITEGIC>MOL_PROPERTY
VdW
SciTegic.value.DoubleValue
0.521

@<SCITEGIC>MOL_PROPERTY
VdW6
SciTegic.value.DoubleValue
-9.173

@<SCITEGIC>MOL_PROPERTY
VdW12
SciTegic.value.DoubleValue
9.694

@<SCITEGIC>MOL_PROPERTY
Bond
SciTegic.value.DoubleValue
0.280

@<SCITEGIC>MOL_PROPERTY
Angle
SciTegic.value.DoubleValue
1.536

@<SCITEGIC>MOL_PROPERTY
Pdih
SciTegic.value.DoubleValue
1.980

@<SCITEGIC>MOL_PROPERTY
Idih
SciTegic.value.DoubleValue
0.000

@<SCITEGIC>MOL_PROPERTY
Tether
SciTegic.value.DoubleValue
0.000

@<TRIPOS>MOLECULE
guest-s14_vm2.mol2 : vm2 ligand conformer 95
          26          25           1
SMALL
USER_CHARGES
 
@<TRIPOS>ATOM
       1    C1      18.460824   18.761758   20.923857 C.3        1 MOL1        -0.2400
       2    H1      17.846443   18.022994   20.393161 H          1 MOL1         0.0971
       3    H2      18.161174   18.744134   21.978606 H          1 MOL1         0.0971
       4    H3      18.222865   19.752353   20.515104 H          1 MOL1         0.0971
       5    C2      19.962574   18.438236   20.755110 C.3        1 MOL1        -0.1385
       6    H4      20.187301   18.354825   19.682632 H          1 MOL1         0.0960
       7    H5      20.180295   17.451169   21.184315 H          1 MOL1         0.0960
       8    C3      20.897202   19.509904   21.372067 C.3        1 MOL1        -0.1409
       9    H6      21.940120   19.226718   21.173935 H          1 MOL1         0.0960
      10    H7      20.739923   20.462267   20.847285 H          1 MOL1         0.0960
      11    C4      20.719108   19.745414   22.894072 C.3        1 MOL1        -0.1409
      12    H8      19.711326   20.132367   23.091105 H          1 MOL1         0.0960
      13    H9      21.413382   20.538420   23.204216 H          1 MOL1         0.0960
      14    C5      20.986201   18.480716   23.748470 C.3        1 MOL1        -0.1409
      15    H10     20.249739   17.702210   23.512618 H          1 MOL1         0.0960
      16    H11     21.967643   18.066142   23.480234 H          1 MOL1         0.0960
      17    C6      20.968933   18.763893   25.271415 C.3        1 MOL1        -0.1450
      18    H12     21.765727   19.478841   25.515951 H          1 MOL1         0.0960
      19    H13     21.208701   17.840773   25.815604 H          1 MOL1         0.0960
      20    C7      19.627477   19.321521   25.788906 C.3        1 MOL1         0.0172
      21    H14     19.708475   19.526505   26.859844 H          1 MOL1         0.0934
      22    H15     19.396550   20.261024   25.280324 H          1 MOL1         0.0934
      23    N1      18.458681   18.377558   25.587103 N.4        1 MOL1        -0.5956
      24    H16     18.602743   17.486097   26.072469 H          1 MOL1         0.3624
      25    H17     18.313561   18.163904   24.595767 H          1 MOL1         0.3624
      26    H18     17.582508   18.774611   25.943404 H          1 MOL1         0.3624
@<TRIPOS>BOND
    1     1     2    1
    2     1     3    1
    3     1     4    1
    4     1     5    1
    5     5     6    1
    6     5     7    1
    7     5     8    1
    8     8     9    1
    9     8    10    1
   10     8    11    1
   11    11    12    1
   12    11    13    1
   13    11    14    1
   14    14    15    1
   15    14    16    1
   16    14    17    1
   17    17    18    1
   18    17    19    1
   19    17    20    1
   20    20    21    1
   21    20    22    1
   22    20    23    1
   23    23    24    1
   24    23    25    1
   25    23    26    1
@<TRIPOS>SUBSTRUCTURE
       1 MOL1            1 RESIDUE      1      MOL     
@<SCITEGIC>MOL_PROPERTY
VM2 Rank
SciTegic.value.IntegerValue
95

@<SCITEGIC>MOL_PROPERTY
Conf_Id
SciTegic.value.IntegerValue
1615

@<SCITEGIC>MOL_PROPERTY
Probability
SciTegic.value.DoubleValue
0.10

@<SCITEGIC>MOL_PROPERTY
Sum Probability
SciTegic.value.DoubleValue
98.47

@<SCITEGIC>MOL_PROPERTY
Delta G
SciTegic.value.DoubleValue
2.555

@<SCITEGIC>MOL_PROPERTY
G
SciTegic.value.DoubleValue
50.816

@<SCITEGIC>MOL_PROPERTY
E
SciTegic.value.DoubleValue
17.763

@<SCITEGIC>MOL_PROPERTY
-TS
SciTegic.value.DoubleValue
33.053

@<SCITEGIC>MOL_PROPERTY
U+W
SciTegic.value.DoubleValue
-3.699

@<SCITEGIC>MOL_PROPERTY
U
SciTegic.value.DoubleValue
50.414

@<SCITEGIC>MOL_PROPERTY
W
SciTegic.value.DoubleValue
-54.113

@<SCITEGIC>MOL_PROPERTY
W(PB)
SciTegic.value.DoubleValue
-56.311

@<SCITEGIC>MOL_PROPERTY
W(SA)
SciTegic.value.DoubleValue
2.198

@<SCITEGIC>MOL_PROPERTY
Valence
SciTegic.value.DoubleValue
3.472

@<SCITEGIC>MOL_PROPERTY
Coulomb
SciTegic.value.DoubleValue
46.374

@<SCITEGIC>MOL_PROPERTY
VdW
SciTegic.value.DoubleValue
0.568

@<SCITEGIC>MOL_PROPERTY
VdW6
SciTegic.value.DoubleValue
-8.862

@<SCITEGIC>MOL_PROPERTY
VdW12
SciTegic.value.DoubleValue
9.430

@<SCITEGIC>MOL_PROPERTY
Bond
SciTegic.value.DoubleValue
0.255

@<SCITEGIC>MOL_PROPERTY
Angle
SciTegic.value.DoubleValue
1.219

@<SCITEGIC>MOL_PROPERTY
Pdih
SciTegic.value.DoubleValue
1.997

@<SCITEGIC>MOL_PROPERTY
Idih
SciTegic.value.DoubleValue
0.000

@<SCITEGIC>MOL_PROPERTY
Tether
SciTegic.value.DoubleValue
0.000

@<TRIPOS>MOLECULE
guest-s14_vm2.mol2 : vm2 ligand conformer 96
          26          25           1
SMALL
USER_CHARGES
 
@<TRIPOS>ATOM
       1    C1      20.877724   20.356751   21.004412 C.3        1 MOL1        -0.2400
       2    H1      20.080012   20.977879   20.576819 H          1 MOL1         0.0971
       3    H2      20.962272   20.592845   22.071982 H          1 MOL1         0.0971
       4    H3      21.822104   20.646574   20.525845 H          1 MOL1         0.0971
       5    C2      20.593898   18.854841   20.776138 C.3        1 MOL1        -0.1385
       6    H4      21.395399   18.253071   21.224902 H          1 MOL1         0.0960
       7    H5      20.632288   18.648366   19.697450 H          1 MOL1         0.0960
       8    C3      19.214123   18.399195   21.315809 C.3        1 MOL1        -0.1409
       9    H6      18.425241   18.934733   20.769920 H          1 MOL1         0.0960
      10    H7      19.074517   17.335623   21.078208 H          1 MOL1         0.0960
      11    C4      18.996833   18.608863   22.836504 C.3        1 MOL1        -0.1409
      12    H8      17.981602   18.273703   23.089560 H          1 MOL1         0.0960
      13    H9      19.027366   19.681039   23.068207 H          1 MOL1         0.0960
      14    C5      20.014285   17.839364   23.715971 C.3        1 MOL1        -0.1409
      15    H10     20.022867   16.782723   23.415165 H          1 MOL1         0.0960
      16    H11     21.029268   18.216801   23.538700 H          1 MOL1         0.0960
      17    C6      19.689983   17.919841   25.228652 C.3        1 MOL1        -0.1450
      18    H12     20.418720   17.319387   25.789167 H          1 MOL1         0.0960
      19    H13     18.709306   17.461742   25.413709 H          1 MOL1         0.0960
      20    C7      19.679592   19.355876   25.790741 C.3        1 MOL1         0.0172
      21    H14     18.930697   19.953565   25.264840 H          1 MOL1         0.0934
      22    H15     19.409603   19.329189   26.849930 H          1 MOL1         0.0934
      23    N1      21.014561   20.064269   25.672775 N.4        1 MOL1        -0.5956
      24    H16     20.976749   21.014565   26.057207 H          1 MOL1         0.3624
      25    H17     21.313935   20.144044   24.696320 H          1 MOL1         0.3624
      26    H18     21.754477   19.565996   26.178035 H          1 MOL1         0.3624
@<TRIPOS>BOND
    1     1     2    1
    2     1     3    1
    3     1     4    1
    4     1     5    1
    5     5     6    1
    6     5     7    1
    7     5     8    1
    8     8     9    1
    9     8    10    1
   10     8    11    1
   11    11    12    1
   12    11    13    1
   13    11    14    1
   14    14    15    1
   15    14    16    1
   16    14    17    1
   17    17    18    1
   18    17    19    1
   19    17    20    1
   20    20    21    1
   21    20    22    1
   22    20    23    1
   23    23    24    1
   24    23    25    1
   25    23    26    1
@<TRIPOS>SUBSTRUCTURE
       1 MOL1            1 RESIDUE      1      MOL     
@<SCITEGIC>MOL_PROPERTY
VM2 Rank
SciTegic.value.IntegerValue
96

@<SCITEGIC>MOL_PROPERTY
Conf_Id
SciTegic.value.IntegerValue
1253

@<SCITEGIC>MOL_PROPERTY
Probability
SciTegic.value.DoubleValue
0.09

@<SCITEGIC>MOL_PROPERTY
Sum Probability
SciTegic.value.DoubleValue
98.56

@<SCITEGIC>MOL_PROPERTY
Delta G
SciTegic.value.DoubleValue
2.619

@<SCITEGIC>MOL_PROPERTY
G
SciTegic.value.DoubleValue
50.880

@<SCITEGIC>MOL_PROPERTY
E
SciTegic.value.DoubleValue
17.826

@<SCITEGIC>MOL_PROPERTY
-TS
SciTegic.value.DoubleValue
33.053

@<SCITEGIC>MOL_PROPERTY
U+W
SciTegic.value.DoubleValue
-3.635

@<SCITEGIC>MOL_PROPERTY
U
SciTegic.value.DoubleValue
50.414

@<SCITEGIC>MOL_PROPERTY
W
SciTegic.value.DoubleValue
-54.050

@<SCITEGIC>MOL_PROPERTY
W(PB)
SciTegic.value.DoubleValue
-56.263

@<SCITEGIC>MOL_PROPERTY
W(SA)
SciTegic.value.DoubleValue
2.213

@<SCITEGIC>MOL_PROPERTY
Valence
SciTegic.value.DoubleValue
3.472

@<SCITEGIC>MOL_PROPERTY
Coulomb
SciTegic.value.DoubleValue
46.374

@<SCITEGIC>MOL_PROPERTY
VdW
SciTegic.value.DoubleValue
0.568

@<SCITEGIC>MOL_PROPERTY
VdW6
SciTegic.value.DoubleValue
-8.861

@<SCITEGIC>MOL_PROPERTY
VdW12
SciTegic.value.DoubleValue
9.429

@<SCITEGIC>MOL_PROPERTY
Bond
SciTegic.value.DoubleValue
0.255

@<SCITEGIC>MOL_PROPERTY
Angle
SciTegic.value.DoubleValue
1.219

@<SCITEGIC>MOL_PROPERTY
Pdih
SciTegic.value.DoubleValue
1.997

@<SCITEGIC>MOL_PROPERTY
Idih
SciTegic.value.DoubleValue
0.000

@<SCITEGIC>MOL_PROPERTY
Tether
SciTegic.value.DoubleValue
0.000

@<TRIPOS>MOLECULE
guest-s14_vm2.mol2 : vm2 ligand conformer 97
          26          25           1
SMALL
USER_CHARGES
 
@<TRIPOS>ATOM
       1    C1      19.681621   18.603156   19.925512 C.3        1 MOL1        -0.2400
       2    H1      20.086288   17.977003   19.119913 H          1 MOL1         0.0971
       3    H2      18.865607   18.044401   20.400354 H          1 MOL1         0.0971
       4    H3      19.259164   19.507388   19.468557 H          1 MOL1         0.0971
       5    C2      20.789387   18.960567   20.941992 C.3        1 MOL1        -0.1385
       6    H4      21.630807   19.416761   20.402114 H          1 MOL1         0.0960
       7    H5      21.185271   18.042414   21.395990 H          1 MOL1         0.0960
       8    C3      20.318531   19.943595   22.043790 C.3        1 MOL1        -0.1409
       9    H6      21.172973   20.194929   22.685957 H          1 MOL1         0.0960
      10    H7      20.018338   20.888297   21.570085 H          1 MOL1         0.0960
      11    C4      19.144125   19.435712   22.922781 C.3        1 MOL1        -0.1409
      12    H8      18.244659   19.333143   22.301383 H          1 MOL1         0.0960
      13    H9      18.897649   20.210168   23.661166 H          1 MOL1         0.0960
      14    C5      19.402665   18.091183   23.654304 C.3        1 MOL1        -0.1409
      15    H10     18.512088   17.833158   24.242700 H          1 MOL1         0.0960
      16    H11     19.505327   17.286252   22.914535 H          1 MOL1         0.0960
      17    C6      20.646637   18.085372   24.580890 C.3        1 MOL1        -0.1450
      18    H12     21.556937   18.190861   23.977114 H          1 MOL1         0.0960
      19    H13     20.725077   17.107640   25.074334 H          1 MOL1         0.0960
      20    C7      20.631507   19.192421   25.653875 C.3        1 MOL1         0.0172
      21    H14     21.553725   19.144147   26.239212 H          1 MOL1         0.0934
      22    H15     20.585421   20.172406   25.171860 H          1 MOL1         0.0934
      23    N1      19.466526   19.086994   26.617856 N.4        1 MOL1        -0.5956
      24    H16     19.472713   18.196439   27.125464 H          1 MOL1         0.3624
      25    H17     18.567393   19.152115   26.130884 H          1 MOL1         0.3624
      26    H18     19.484399   19.833516   27.321017 H          1 MOL1         0.3624
@<TRIPOS>BOND
    1     1     2    1
    2     1     3    1
    3     1     4    1
    4     1     5    1
    5     5     6    1
    6     5     7    1
    7     5     8    1
    8     8     9    1
    9     8    10    1
   10     8    11    1
   11    11    12    1
   12    11    13    1
   13    11    14    1
   14    14    15    1
   15    14    16    1
   16    14    17    1
   17    17    18    1
   18    17    19    1
   19    17    20    1
   20    20    21    1
   21    20    22    1
   22    20    23    1
   23    23    24    1
   24    23    25    1
   25    23    26    1
@<TRIPOS>SUBSTRUCTURE
       1 MOL1            1 RESIDUE      1      MOL     
@<SCITEGIC>MOL_PROPERTY
VM2 Rank
SciTegic.value.IntegerValue
97

@<SCITEGIC>MOL_PROPERTY
Conf_Id
SciTegic.value.IntegerValue
864

@<SCITEGIC>MOL_PROPERTY
Probability
SciTegic.value.DoubleValue
0.08

@<SCITEGIC>MOL_PROPERTY
Sum Probability
SciTegic.value.DoubleValue
98.64

@<SCITEGIC>MOL_PROPERTY
Delta G
SciTegic.value.DoubleValue
2.703

@<SCITEGIC>MOL_PROPERTY
G
SciTegic.value.DoubleValue
50.964

@<SCITEGIC>MOL_PROPERTY
E
SciTegic.value.DoubleValue
17.437

@<SCITEGIC>MOL_PROPERTY
-TS
SciTegic.value.DoubleValue
33.527

@<SCITEGIC>MOL_PROPERTY
U+W
SciTegic.value.DoubleValue
-4.025

@<SCITEGIC>MOL_PROPERTY
U
SciTegic.value.DoubleValue
50.052

@<SCITEGIC>MOL_PROPERTY
W
SciTegic.value.DoubleValue
-54.076

@<SCITEGIC>MOL_PROPERTY
W(PB)
SciTegic.value.DoubleValue
-56.271

@<SCITEGIC>MOL_PROPERTY
W(SA)
SciTegic.value.DoubleValue
2.194

@<SCITEGIC>MOL_PROPERTY
Valence
SciTegic.value.DoubleValue
3.896

@<SCITEGIC>MOL_PROPERTY
Coulomb
SciTegic.value.DoubleValue
45.624

@<SCITEGIC>MOL_PROPERTY
VdW
SciTegic.value.DoubleValue
0.532

@<SCITEGIC>MOL_PROPERTY
VdW6
SciTegic.value.DoubleValue
-9.866

@<SCITEGIC>MOL_PROPERTY
VdW12
SciTegic.value.DoubleValue
10.398

@<SCITEGIC>MOL_PROPERTY
Bond
SciTegic.value.DoubleValue
0.306

@<SCITEGIC>MOL_PROPERTY
Angle
SciTegic.value.DoubleValue
1.610

@<SCITEGIC>MOL_PROPERTY
Pdih
SciTegic.value.DoubleValue
1.981

@<SCITEGIC>MOL_PROPERTY
Idih
SciTegic.value.DoubleValue
0.000

@<SCITEGIC>MOL_PROPERTY
Tether
SciTegic.value.DoubleValue
0.000

@<TRIPOS>MOLECULE
guest-s14_vm2.mol2 : vm2 ligand conformer 98
          26          25           1
SMALL
USER_CHARGES
 
@<TRIPOS>ATOM
       1    C1      20.543153   19.015873   19.213550 C.3        1 MOL1        -0.2400
       2    H1      19.554476   18.708664   18.848332 H          1 MOL1         0.0971
       3    H2      20.624056   20.105416   19.105879 H          1 MOL1         0.0971
       4    H3      21.299864   18.556029   18.564725 H          1 MOL1         0.0971
       5    C2      20.750310   18.586577   20.681496 C.3        1 MOL1        -0.1385
       6    H4      21.759084   18.876962   21.006959 H          1 MOL1         0.0960
       7    H5      20.697428   17.491039   20.751698 H          1 MOL1         0.0960
       8    C3      19.697062   19.220701   21.616923 C.3        1 MOL1        -0.1409
       9    H6      19.752687   20.315630   21.542444 H          1 MOL1         0.0960
      10    H7      18.690882   18.930286   21.284203 H          1 MOL1         0.0960
      11    C4      19.900100   18.791911   23.087746 C.3        1 MOL1        -0.1409
      12    H8      20.909473   19.083833   23.402826 H          1 MOL1         0.0960
      13    H9      19.835514   17.697461   23.161325 H          1 MOL1         0.0960
      14    C5      18.851575   19.439347   24.023123 C.3        1 MOL1        -0.1409
      15    H10     18.992729   20.529045   24.033185 H          1 MOL1         0.0960
      16    H11     17.849020   19.264603   23.608657 H          1 MOL1         0.0960
      17    C6      18.871243   18.903321   25.477534 C.3        1 MOL1        -0.1450
      18    H12     18.669383   17.823985   25.490176 H          1 MOL1         0.0960
      19    H13     18.039039   19.371641   26.019730 H          1 MOL1         0.0960
      20    C7      20.168540   19.207624   26.255199 C.3        1 MOL1         0.0172
      21    H14     20.514766   20.217459   26.019283 H          1 MOL1         0.0934
      22    H15     19.959245   19.162942   27.327441 H          1 MOL1         0.0934
      23    N1      21.299017   18.233646   25.985429 N.4        1 MOL1        -0.5956
      24    H16     22.141731   18.472177   26.519625 H          1 MOL1         0.3624
      25    H17     21.561634   18.220276   24.996050 H          1 MOL1         0.3624
      26    H18     21.043348   17.275088   26.244078 H          1 MOL1         0.3624
@<TRIPOS>BOND
    1     1     2    1
    2     1     3    1
    3     1     4    1
    4     1     5    1
    5     5     6    1
    6     5     7    1
    7     5     8    1
    8     8     9    1
    9     8    10    1
   10     8    11    1
   11    11    12    1
   12    11    13    1
   13    11    14    1
   14    14    15    1
   15    14    16    1
   16    14    17    1
   17    17    18    1
   18    17    19    1
   19    17    20    1
   20    20    21    1
   21    20    22    1
   22    20    23    1
   23    23    24    1
   24    23    25    1
   25    23    26    1
@<TRIPOS>SUBSTRUCTURE
       1 MOL1            1 RESIDUE      1      MOL     
@<SCITEGIC>MOL_PROPERTY
VM2 Rank
SciTegic.value.IntegerValue
98

@<SCITEGIC>MOL_PROPERTY
Conf_Id
SciTegic.value.IntegerValue
1576

@<SCITEGIC>MOL_PROPERTY
Probability
SciTegic.value.DoubleValue
0.07

@<SCITEGIC>MOL_PROPERTY
Sum Probability
SciTegic.value.DoubleValue
98.71

@<SCITEGIC>MOL_PROPERTY
Delta G
SciTegic.value.DoubleValue
2.761

@<SCITEGIC>MOL_PROPERTY
G
SciTegic.value.DoubleValue
51.022

@<SCITEGIC>MOL_PROPERTY
E
SciTegic.value.DoubleValue
18.523

@<SCITEGIC>MOL_PROPERTY
-TS
SciTegic.value.DoubleValue
32.499

@<SCITEGIC>MOL_PROPERTY
U+W
SciTegic.value.DoubleValue
-2.939

@<SCITEGIC>MOL_PROPERTY
U
SciTegic.value.DoubleValue
50.881

@<SCITEGIC>MOL_PROPERTY
W
SciTegic.value.DoubleValue
-53.820

@<SCITEGIC>MOL_PROPERTY
W(PB)
SciTegic.value.DoubleValue
-56.136

@<SCITEGIC>MOL_PROPERTY
W(SA)
SciTegic.value.DoubleValue
2.315

@<SCITEGIC>MOL_PROPERTY
Valence
SciTegic.value.DoubleValue
3.754

@<SCITEGIC>MOL_PROPERTY
Coulomb
SciTegic.value.DoubleValue
46.575

@<SCITEGIC>MOL_PROPERTY
VdW
SciTegic.value.DoubleValue
0.553

@<SCITEGIC>MOL_PROPERTY
VdW6
SciTegic.value.DoubleValue
-7.276

@<SCITEGIC>MOL_PROPERTY
VdW12
SciTegic.value.DoubleValue
7.829

@<SCITEGIC>MOL_PROPERTY
Bond
SciTegic.value.DoubleValue
0.187

@<SCITEGIC>MOL_PROPERTY
Angle
SciTegic.value.DoubleValue
0.957

@<SCITEGIC>MOL_PROPERTY
Pdih
SciTegic.value.DoubleValue
2.610

@<SCITEGIC>MOL_PROPERTY
Idih
SciTegic.value.DoubleValue
0.000

@<SCITEGIC>MOL_PROPERTY
Tether
SciTegic.value.DoubleValue
0.000

@<TRIPOS>MOLECULE
guest-s14_vm2.mol2 : vm2 ligand conformer 99
          26          25           1
SMALL
USER_CHARGES
 
@<TRIPOS>ATOM
       1    C1      19.906915   18.596406   19.192331 C.3        1 MOL1        -0.2400
       2    H1      20.594885   19.394108   18.883120 H          1 MOL1         0.0971
       3    H2      20.061732   17.739876   18.523430 H          1 MOL1         0.0971
       4    H3      18.879672   18.955666   19.047600 H          1 MOL1         0.0971
       5    C2      20.151249   18.191689   20.661541 C.3        1 MOL1        -0.1385
       6    H4      21.174746   17.805555   20.767762 H          1 MOL1         0.0960
       7    H5      19.472721   17.370061   20.930625 H          1 MOL1         0.0960
       8    C3      19.939586   19.380524   21.625038 C.3        1 MOL1        -0.1409
       9    H6      20.617440   20.199991   21.348579 H          1 MOL1         0.0960
      10    H7      18.915763   19.764019   21.514442 H          1 MOL1         0.0960
      11    C4      20.184955   18.979733   23.097302 C.3        1 MOL1        -0.1409
      12    H8      21.211926   18.604752   23.207421 H          1 MOL1         0.0960
      13    H9      19.505323   18.158430   23.355945 H          1 MOL1         0.0960
      14    C5      19.959102   20.169483   24.060104 C.3        1 MOL1        -0.1409
      15    H10     20.533073   21.033836   23.698319 H          1 MOL1         0.0960
      16    H11     18.902487   20.469698   24.030057 H          1 MOL1         0.0960
      17    C6      20.375764   19.895270   25.527829 C.3        1 MOL1        -0.1450
      18    H12     20.247391   20.827651   26.093560 H          1 MOL1         0.0960
      19    H13     21.445728   19.654442   25.583092 H          1 MOL1         0.0960
      20    C7      19.550226   18.800020   26.234405 C.3        1 MOL1         0.0172
      21    H14     19.623340   18.941728   27.316106 H          1 MOL1         0.0934
      22    H15     18.497804   18.887611   25.951504 H          1 MOL1         0.0934
      23    N1      20.013203   17.385874   25.942450 N.4        1 MOL1        -0.5956
      24    H16     20.981878   17.234635   26.242279 H          1 MOL1         0.3624
      25    H17     19.968632   17.169786   24.942780 H          1 MOL1         0.3624
      26    H18     19.438036   16.689613   26.429103 H          1 MOL1         0.3624
@<TRIPOS>BOND
    1     1     2    1
    2     1     3    1
    3     1     4    1
    4     1     5    1
    5     5     6    1
    6     5     7    1
    7     5     8    1
    8     8     9    1
    9     8    10    1
   10     8    11    1
   11    11    12    1
   12    11    13    1
   13    11    14    1
   14    14    15    1
   15    14    16    1
   16    14    17    1
   17    17    18    1
   18    17    19    1
   19    17    20    1
   20    20    21    1
   21    20    22    1
   22    20    23    1
   23    23    24    1
   24    23    25    1
   25    23    26    1
@<TRIPOS>SUBSTRUCTURE
       1 MOL1            1 RESIDUE      1      MOL     
@<SCITEGIC>MOL_PROPERTY
VM2 Rank
SciTegic.value.IntegerValue
99

@<SCITEGIC>MOL_PROPERTY
Conf_Id
SciTegic.value.IntegerValue
1311

@<SCITEGIC>MOL_PROPERTY
Probability
SciTegic.value.DoubleValue
0.07

@<SCITEGIC>MOL_PROPERTY
Sum Probability
SciTegic.value.DoubleValue
98.78

@<SCITEGIC>MOL_PROPERTY
Delta G
SciTegic.value.DoubleValue
2.776

@<SCITEGIC>MOL_PROPERTY
G
SciTegic.value.DoubleValue
51.037

@<SCITEGIC>MOL_PROPERTY
E
SciTegic.value.DoubleValue
18.537

@<SCITEGIC>MOL_PROPERTY
-TS
SciTegic.value.DoubleValue
32.500

@<SCITEGIC>MOL_PROPERTY
U+W
SciTegic.value.DoubleValue
-2.925

@<SCITEGIC>MOL_PROPERTY
U
SciTegic.value.DoubleValue
50.881

@<SCITEGIC>MOL_PROPERTY
W
SciTegic.value.DoubleValue
-53.806

@<SCITEGIC>MOL_PROPERTY
W(PB)
SciTegic.value.DoubleValue
-56.131

@<SCITEGIC>MOL_PROPERTY
W(SA)
SciTegic.value.DoubleValue
2.325

@<SCITEGIC>MOL_PROPERTY
Valence
SciTegic.value.DoubleValue
3.754

@<SCITEGIC>MOL_PROPERTY
Coulomb
SciTegic.value.DoubleValue
46.575

@<SCITEGIC>MOL_PROPERTY
VdW
SciTegic.value.DoubleValue
0.553

@<SCITEGIC>MOL_PROPERTY
VdW6
SciTegic.value.DoubleValue
-7.276

@<SCITEGIC>MOL_PROPERTY
VdW12
SciTegic.value.DoubleValue
7.829

@<SCITEGIC>MOL_PROPERTY
Bond
SciTegic.value.DoubleValue
0.187

@<SCITEGIC>MOL_PROPERTY
Angle
SciTegic.value.DoubleValue
0.957

@<SCITEGIC>MOL_PROPERTY
Pdih
SciTegic.value.DoubleValue
2.610

@<SCITEGIC>MOL_PROPERTY
Idih
SciTegic.value.DoubleValue
0.000

@<SCITEGIC>MOL_PROPERTY
Tether
SciTegic.value.DoubleValue
0.000

@<TRIPOS>MOLECULE
guest-s14_vm2.mol2 : vm2 ligand conformer 100
          26          25           1
SMALL
USER_CHARGES
 
@<TRIPOS>ATOM
       1    C1      20.564811   20.447327   20.073396 C.3        1 MOL1        -0.2400
       2    H1      21.404904   20.900736   20.615515 H          1 MOL1         0.0971
       3    H2      20.820929   20.433239   19.006043 H          1 MOL1         0.0971
       4    H3      19.686766   21.093895   20.200749 H          1 MOL1         0.0971
       5    C2      20.280637   19.018953   20.584449 C.3        1 MOL1        -0.1385
       6    H4      21.164194   18.387914   20.413950 H          1 MOL1         0.0960
       7    H5      19.459811   18.580000   20.000104 H          1 MOL1         0.0960
       8    C3      19.916172   19.010991   22.085580 C.3        1 MOL1        -0.1409
       9    H6      20.743063   19.458790   22.651351 H          1 MOL1         0.0960
      10    H7      19.029192   19.638132   22.250219 H          1 MOL1         0.0960
      11    C4      19.645635   17.579052   22.603668 C.3        1 MOL1        -0.1409
      12    H8      20.570865   16.989325   22.544713 H          1 MOL1         0.0960
      13    H9      18.927460   17.086966   21.933234 H          1 MOL1         0.0960
      14    C5      19.081746   17.511146   24.046761 C.3        1 MOL1        -0.1409
      15    H10     18.101922   18.006526   24.093033 H          1 MOL1         0.0960
      16    H11     18.891268   16.453978   24.278250 H          1 MOL1         0.0960
      17    C6      20.017458   18.083080   25.141497 C.3        1 MOL1        -0.1450
      18    H12     21.064134   17.853641   24.901287 H          1 MOL1         0.0960
      19    H13     19.798042   17.573874   26.089432 H          1 MOL1         0.0960
      20    C7      19.836768   19.598011   25.360102 C.3        1 MOL1         0.0172
      21    H14     20.052063   20.142627   24.439011 H          1 MOL1         0.0934
      22    H15     18.801739   19.805477   25.644782 H          1 MOL1         0.0934
      23    N1      20.737772   20.150441   26.445547 N.4        1 MOL1        -0.5956
      24    H16     20.599689   21.158090   26.579398 H          1 MOL1         0.3624
      25    H17     21.729643   20.011289   26.226626 H          1 MOL1         0.3624
      26    H18     20.563132   19.702782   27.351244 H          1 MOL1         0.3624
@<TRIPOS>BOND
    1     1     2    1
    2     1     3    1
    3     1     4    1
    4     1     5    1
    5     5     6    1
    6     5     7    1
    7     5     8    1
    8     8     9    1
    9     8    10    1
   10     8    11    1
   11    11    12    1
   12    11    13    1
   13    11    14    1
   14    14    15    1
   15    14    16    1
   16    14    17    1
   17    17    18    1
   18    17    19    1
   19    17    20    1
   20    20    21    1
   21    20    22    1
   22    20    23    1
   23    23    24    1
   24    23    25    1
   25    23    26    1
@<TRIPOS>SUBSTRUCTURE
       1 MOL1            1 RESIDUE      1      MOL     
@<SCITEGIC>MOL_PROPERTY
VM2 Rank
SciTegic.value.IntegerValue
100

@<SCITEGIC>MOL_PROPERTY
Conf_Id
SciTegic.value.IntegerValue
1233

@<SCITEGIC>MOL_PROPERTY
Probability
SciTegic.value.DoubleValue
0.06

@<SCITEGIC>MOL_PROPERTY
Sum Probability
SciTegic.value.DoubleValue
98.84

@<SCITEGIC>MOL_PROPERTY
Delta G
SciTegic.value.DoubleValue
2.862

@<SCITEGIC>MOL_PROPERTY
G
SciTegic.value.DoubleValue
51.123

@<SCITEGIC>MOL_PROPERTY
E
SciTegic.value.DoubleValue
18.434

@<SCITEGIC>MOL_PROPERTY
-TS
SciTegic.value.DoubleValue
32.689

@<SCITEGIC>MOL_PROPERTY
U+W
SciTegic.value.DoubleValue
-3.028

@<SCITEGIC>MOL_PROPERTY
U
SciTegic.value.DoubleValue
50.863

@<SCITEGIC>MOL_PROPERTY
W
SciTegic.value.DoubleValue
-53.891

@<SCITEGIC>MOL_PROPERTY
W(PB)
SciTegic.value.DoubleValue
-56.212

@<SCITEGIC>MOL_PROPERTY
W(SA)
SciTegic.value.DoubleValue
2.321

@<SCITEGIC>MOL_PROPERTY
Valence
SciTegic.value.DoubleValue
4.548

@<SCITEGIC>MOL_PROPERTY
Coulomb
SciTegic.value.DoubleValue
45.757

@<SCITEGIC>MOL_PROPERTY
VdW
SciTegic.value.DoubleValue
0.558

@<SCITEGIC>MOL_PROPERTY
VdW6
SciTegic.value.DoubleValue
-7.490

@<SCITEGIC>MOL_PROPERTY
VdW12
SciTegic.value.DoubleValue
8.048

@<SCITEGIC>MOL_PROPERTY
Bond
SciTegic.value.DoubleValue
0.198

@<SCITEGIC>MOL_PROPERTY
Angle
SciTegic.value.DoubleValue
1.148

@<SCITEGIC>MOL_PROPERTY
Pdih
SciTegic.value.DoubleValue
3.203

@<SCITEGIC>MOL_PROPERTY
Idih
SciTegic.value.DoubleValue
0.000

@<SCITEGIC>MOL_PROPERTY
Tether
SciTegic.value.DoubleValue
0.000

@<TRIPOS>MOLECULE
guest-s14_vm2.mol2 : vm2 ligand conformer 101
          26          25           1
SMALL
USER_CHARGES
 
@<TRIPOS>ATOM
       1    C1      18.669318   19.047272   19.828281 C.3        1 MOL1        -0.2400
       2    H1      18.788403   20.111216   19.585217 H          1 MOL1         0.0971
       3    H2      18.560158   18.496374   18.885075 H          1 MOL1         0.0971
       4    H3      17.738082   18.928640   20.397452 H          1 MOL1         0.0971
       5    C2      19.879899   18.522264   20.628959 C.3        1 MOL1        -0.1385
       6    H4      20.789853   18.621906   20.020706 H          1 MOL1         0.0960
       7    H5      19.747559   17.449526   20.828057 H          1 MOL1         0.0960
       8    C3      20.057024   19.281800   21.962395 C.3        1 MOL1        -0.1409
       9    H6      20.189455   20.352711   21.755357 H          1 MOL1         0.0960
      10    H7      19.137806   19.187936   22.551569 H          1 MOL1         0.0960
      11    C4      21.275009   18.758108   22.762846 C.3        1 MOL1        -0.1409
      12    H8      22.169030   18.870375   22.133809 H          1 MOL1         0.0960
      13    H9      21.172792   17.681055   22.954604 H          1 MOL1         0.0960
      14    C5      21.521537   19.514385   24.094494 C.3        1 MOL1        -0.1409
      15    H10     22.601346   19.503226   24.297950 H          1 MOL1         0.0960
      16    H11     21.250728   20.573815   23.986657 H          1 MOL1         0.0960
      17    C6      20.809207   18.903318   25.327505 C.3        1 MOL1        -0.1450
      18    H12     21.122807   19.457602   26.222147 H          1 MOL1         0.0960
      19    H13     21.145786   17.867834   25.470275 H          1 MOL1         0.0960
      20    C7      19.273377   18.933422   25.237588 C.3        1 MOL1         0.0172
      21    H14     18.934600   19.955992   25.050679 H          1 MOL1         0.0934
      22    H15     18.941422   18.300018   24.411422 H          1 MOL1         0.0934
      23    N1      18.595628   18.438431   26.498933 N.4        1 MOL1        -0.5956
      24    H16     18.854044   17.470492   26.716867 H          1 MOL1         0.3624
      25    H17     17.573347   18.463559   26.417444 H          1 MOL1         0.3624
      26    H18     18.843807   19.007845   27.314622 H          1 MOL1         0.3624
@<TRIPOS>BOND
    1     1     2    1
    2     1     3    1
    3     1     4    1
    4     1     5    1
    5     5     6    1
    6     5     7    1
    7     5     8    1
    8     8     9    1
    9     8    10    1
   10     8    11    1
   11    11    12    1
   12    11    13    1
   13    11    14    1
   14    14    15    1
   15    14    16    1
   16    14    17    1
   17    17    18    1
   18    17    19    1
   19    17    20    1
   20    20    21    1
   21    20    22    1
   22    20    23    1
   23    23    24    1
   24    23    25    1
   25    23    26    1
@<TRIPOS>SUBSTRUCTURE
       1 MOL1            1 RESIDUE      1      MOL     
@<SCITEGIC>MOL_PROPERTY
VM2 Rank
SciTegic.value.IntegerValue
101

@<SCITEGIC>MOL_PROPERTY
Conf_Id
SciTegic.value.IntegerValue
838

@<SCITEGIC>MOL_PROPERTY
Probability
SciTegic.value.DoubleValue
0.06

@<SCITEGIC>MOL_PROPERTY
Sum Probability
SciTegic.value.DoubleValue
98.90

@<SCITEGIC>MOL_PROPERTY
Delta G
SciTegic.value.DoubleValue
2.862

@<SCITEGIC>MOL_PROPERTY
G
SciTegic.value.DoubleValue
51.123

@<SCITEGIC>MOL_PROPERTY
E
SciTegic.value.DoubleValue
18.635

@<SCITEGIC>MOL_PROPERTY
-TS
SciTegic.value.DoubleValue
32.488

@<SCITEGIC>MOL_PROPERTY
U+W
SciTegic.value.DoubleValue
-2.827

@<SCITEGIC>MOL_PROPERTY
U
SciTegic.value.DoubleValue
50.868

@<SCITEGIC>MOL_PROPERTY
W
SciTegic.value.DoubleValue
-53.695

@<SCITEGIC>MOL_PROPERTY
W(PB)
SciTegic.value.DoubleValue
-56.030

@<SCITEGIC>MOL_PROPERTY
W(SA)
SciTegic.value.DoubleValue
2.335

@<SCITEGIC>MOL_PROPERTY
Valence
SciTegic.value.DoubleValue
4.695

@<SCITEGIC>MOL_PROPERTY
Coulomb
SciTegic.value.DoubleValue
45.536

@<SCITEGIC>MOL_PROPERTY
VdW
SciTegic.value.DoubleValue
0.636

@<SCITEGIC>MOL_PROPERTY
VdW6
SciTegic.value.DoubleValue
-7.287

@<SCITEGIC>MOL_PROPERTY
VdW12
SciTegic.value.DoubleValue
7.924

@<SCITEGIC>MOL_PROPERTY
Bond
SciTegic.value.DoubleValue
0.211

@<SCITEGIC>MOL_PROPERTY
Angle
SciTegic.value.DoubleValue
1.115

@<SCITEGIC>MOL_PROPERTY
Pdih
SciTegic.value.DoubleValue
3.370

@<SCITEGIC>MOL_PROPERTY
Idih
SciTegic.value.DoubleValue
0.000

@<SCITEGIC>MOL_PROPERTY
Tether
SciTegic.value.DoubleValue
0.000

@<TRIPOS>MOLECULE
guest-s14_vm2.mol2 : vm2 ligand conformer 102
          26          25           1
SMALL
USER_CHARGES
 
@<TRIPOS>ATOM
       1    C1      18.543617   19.113522   20.005969 C.3        1 MOL1        -0.2400
       2    H1      18.287971   20.170835   20.154181 H          1 MOL1         0.0971
       3    H2      18.505724   18.905486   18.928786 H          1 MOL1         0.0971
       4    H3      17.772445   18.503526   20.494259 H          1 MOL1         0.0971
       5    C2      19.943602   18.796576   20.573216 C.3        1 MOL1        -0.1385
       6    H4      20.695913   19.395830   20.041409 H          1 MOL1         0.0960
       7    H5      20.184803   17.741628   20.381228 H          1 MOL1         0.0960
       8    C3      20.024068   19.082182   22.089211 C.3        1 MOL1        -0.1409
       9    H6      19.788116   20.138934   22.275621 H          1 MOL1         0.0960
      10    H7      19.262068   18.481455   22.601903 H          1 MOL1         0.0960
      11    C4      21.421610   18.751006   22.663017 C.3        1 MOL1        -0.1409
      12    H8      22.186539   19.237660   22.042164 H          1 MOL1         0.0960
      13    H9      21.603288   17.670604   22.579176 H          1 MOL1         0.0960
      14    C5      21.637976   19.197961   24.132208 C.3        1 MOL1        -0.1409
      15    H10     22.673122   18.949563   24.404686 H          1 MOL1         0.0960
      16    H11     21.565012   20.291764   24.208810 H          1 MOL1         0.0960
      17    C6      20.694565   18.529897   25.164092 C.3        1 MOL1        -0.1450
      18    H12     21.204310   18.501761   26.136400 H          1 MOL1         0.0960
      19    H13     20.505954   17.485379   24.882520 H          1 MOL1         0.0960
      20    C7      19.363533   19.285768   25.344294 C.3        1 MOL1         0.0172
      21    H14     19.565676   20.309534   25.670505 H          1 MOL1         0.0934
      22    H15     18.821673   19.330898   24.397870 H          1 MOL1         0.0934
      23    N1      18.452030   18.642088   26.368994 N.4        1 MOL1        -0.5956
      24    H16     17.574267   19.161657   26.478182 H          1 MOL1         0.3624
      25    H17     18.889597   18.598228   27.295167 H          1 MOL1         0.3624
      26    H18     18.200976   17.682857   26.108326 H          1 MOL1         0.3624
@<TRIPOS>BOND
    1     1     2    1
    2     1     3    1
    3     1     4    1
    4     1     5    1
    5     5     6    1
    6     5     7    1
    7     5     8    1
    8     8     9    1
    9     8    10    1
   10     8    11    1
   11    11    12    1
   12    11    13    1
   13    11    14    1
   14    14    15    1
   15    14    16    1
   16    14    17    1
   17    17    18    1
   18    17    19    1
   19    17    20    1
   20    20    21    1
   21    20    22    1
   22    20    23    1
   23    23    24    1
   24    23    25    1
   25    23    26    1
@<TRIPOS>SUBSTRUCTURE
       1 MOL1            1 RESIDUE      1      MOL     
@<SCITEGIC>MOL_PROPERTY
VM2 Rank
SciTegic.value.IntegerValue
102

@<SCITEGIC>MOL_PROPERTY
Conf_Id
SciTegic.value.IntegerValue
1058

@<SCITEGIC>MOL_PROPERTY
Probability
SciTegic.value.DoubleValue
0.06

@<SCITEGIC>MOL_PROPERTY
Sum Probability
SciTegic.value.DoubleValue
98.96

@<SCITEGIC>MOL_PROPERTY
Delta G
SciTegic.value.DoubleValue
2.866

@<SCITEGIC>MOL_PROPERTY
G
SciTegic.value.DoubleValue
51.127

@<SCITEGIC>MOL_PROPERTY
E
SciTegic.value.DoubleValue
18.438

@<SCITEGIC>MOL_PROPERTY
-TS
SciTegic.value.DoubleValue
32.690

@<SCITEGIC>MOL_PROPERTY
U+W
SciTegic.value.DoubleValue
-3.024

@<SCITEGIC>MOL_PROPERTY
U
SciTegic.value.DoubleValue
50.863

@<SCITEGIC>MOL_PROPERTY
W
SciTegic.value.DoubleValue
-53.887

@<SCITEGIC>MOL_PROPERTY
W(PB)
SciTegic.value.DoubleValue
-56.205

@<SCITEGIC>MOL_PROPERTY
W(SA)
SciTegic.value.DoubleValue
2.318

@<SCITEGIC>MOL_PROPERTY
Valence
SciTegic.value.DoubleValue
4.548

@<SCITEGIC>MOL_PROPERTY
Coulomb
SciTegic.value.DoubleValue
45.757

@<SCITEGIC>MOL_PROPERTY
VdW
SciTegic.value.DoubleValue
0.558

@<SCITEGIC>MOL_PROPERTY
VdW6
SciTegic.value.DoubleValue
-7.490

@<SCITEGIC>MOL_PROPERTY
VdW12
SciTegic.value.DoubleValue
8.048

@<SCITEGIC>MOL_PROPERTY
Bond
SciTegic.value.DoubleValue
0.198

@<SCITEGIC>MOL_PROPERTY
Angle
SciTegic.value.DoubleValue
1.147

@<SCITEGIC>MOL_PROPERTY
Pdih
SciTegic.value.DoubleValue
3.203

@<SCITEGIC>MOL_PROPERTY
Idih
SciTegic.value.DoubleValue
0.000

@<SCITEGIC>MOL_PROPERTY
Tether
SciTegic.value.DoubleValue
0.000

@<TRIPOS>MOLECULE
guest-s14_vm2.mol2 : vm2 ligand conformer 103
          26          25           1
SMALL
USER_CHARGES
 
@<TRIPOS>ATOM
       1    C1      19.197991   20.131731   20.000457 C.3        1 MOL1        -0.2400
       2    H1      19.562625   21.102625   20.360492 H          1 MOL1         0.0971
       3    H2      19.266783   20.131227   18.904875 H          1 MOL1         0.0971
       4    H3      18.137913   20.042625   20.271613 H          1 MOL1         0.0971
       5    C2      20.022863   18.972495   20.598742 C.3        1 MOL1        -0.1385
       6    H4      21.071363   19.070277   20.284034 H          1 MOL1         0.0960
       7    H5      19.657483   18.018712   20.192935 H          1 MOL1         0.0960
       8    C3      19.941542   18.949775   22.141205 C.3        1 MOL1        -0.1409
       9    H6      20.303106   19.911454   22.526386 H          1 MOL1         0.0960
      10    H7      18.892622   18.845769   22.450963 H          1 MOL1         0.0960
      11    C4      20.780698   17.799034   22.743966 C.3        1 MOL1        -0.1409
      12    H8      21.845431   17.979253   22.541182 H          1 MOL1         0.0960
      13    H9      20.526372   16.863877   22.226092 H          1 MOL1         0.0960
      14    C5      20.574511   17.576568   24.264811 C.3        1 MOL1        -0.1409
      15    H10     19.534780   17.286219   24.463415 H          1 MOL1         0.0960
      16    H11     21.181287   16.707400   24.554203 H          1 MOL1         0.0960
      17    C6      20.991638   18.769814   25.165835 C.3        1 MOL1        -0.1450
      18    H12     21.901873   19.234704   24.764516 H          1 MOL1         0.0960
      19    H13     21.262585   18.387458   26.158958 H          1 MOL1         0.0960
      20    C7      19.902841   19.848329   25.349312 C.3        1 MOL1         0.0172
      21    H14     20.314050   20.678248   25.930386 H          1 MOL1         0.0934
      22    H15     19.586848   20.239383   24.380823 H          1 MOL1         0.0934
      23    N1      18.668915   19.351254   26.076671 N.4        1 MOL1        -0.5956
      24    H16     18.895550   18.997051   27.011622 H          1 MOL1         0.3624
      25    H17     18.208744   18.590345   25.567925 H          1 MOL1         0.3624
      26    H18     17.973394   20.095202   26.199044 H          1 MOL1         0.3624
@<TRIPOS>BOND
    1     1     2    1
    2     1     3    1
    3     1     4    1
    4     1     5    1
    5     5     6    1
    6     5     7    1
    7     5     8    1
    8     8     9    1
    9     8    10    1
   10     8    11    1
   11    11    12    1
   12    11    13    1
   13    11    14    1
   14    14    15    1
   15    14    16    1
   16    14    17    1
   17    17    18    1
   18    17    19    1
   19    17    20    1
   20    20    21    1
   21    20    22    1
   22    20    23    1
   23    23    24    1
   24    23    25    1
   25    23    26    1
@<TRIPOS>SUBSTRUCTURE
       1 MOL1            1 RESIDUE      1      MOL     
@<SCITEGIC>MOL_PROPERTY
VM2 Rank
SciTegic.value.IntegerValue
103

@<SCITEGIC>MOL_PROPERTY
Conf_Id
SciTegic.value.IntegerValue
1120

@<SCITEGIC>MOL_PROPERTY
Probability
SciTegic.value.DoubleValue
0.03

@<SCITEGIC>MOL_PROPERTY
Sum Probability
SciTegic.value.DoubleValue
98.99

@<SCITEGIC>MOL_PROPERTY
Delta G
SciTegic.value.DoubleValue
3.276

@<SCITEGIC>MOL_PROPERTY
G
SciTegic.value.DoubleValue
51.538

@<SCITEGIC>MOL_PROPERTY
E
SciTegic.value.DoubleValue
18.787

@<SCITEGIC>MOL_PROPERTY
-TS
SciTegic.value.DoubleValue
32.750

@<SCITEGIC>MOL_PROPERTY
U+W
SciTegic.value.DoubleValue
-2.675

@<SCITEGIC>MOL_PROPERTY
U
SciTegic.value.DoubleValue
51.397

@<SCITEGIC>MOL_PROPERTY
W
SciTegic.value.DoubleValue
-54.072

@<SCITEGIC>MOL_PROPERTY
W(PB)
SciTegic.value.DoubleValue
-56.387

@<SCITEGIC>MOL_PROPERTY
W(SA)
SciTegic.value.DoubleValue
2.315

@<SCITEGIC>MOL_PROPERTY
Valence
SciTegic.value.DoubleValue
4.709

@<SCITEGIC>MOL_PROPERTY
Coulomb
SciTegic.value.DoubleValue
46.079

@<SCITEGIC>MOL_PROPERTY
VdW
SciTegic.value.DoubleValue
0.609

@<SCITEGIC>MOL_PROPERTY
VdW6
SciTegic.value.DoubleValue
-8.057

@<SCITEGIC>MOL_PROPERTY
VdW12
SciTegic.value.DoubleValue
8.666

@<SCITEGIC>MOL_PROPERTY
Bond
SciTegic.value.DoubleValue
0.231

@<SCITEGIC>MOL_PROPERTY
Angle
SciTegic.value.DoubleValue
1.340

@<SCITEGIC>MOL_PROPERTY
Pdih
SciTegic.value.DoubleValue
3.138

@<SCITEGIC>MOL_PROPERTY
Idih
SciTegic.value.DoubleValue
0.000

@<SCITEGIC>MOL_PROPERTY
Tether
SciTegic.value.DoubleValue
0.000

@<TRIPOS>MOLECULE
guest-s14_vm2.mol2 : vm2 ligand conformer 104
          26          25           1
SMALL
USER_CHARGES
 
@<TRIPOS>ATOM
       1    C1      19.840810   20.459200   20.451256 C.3        1 MOL1        -0.2400
       2    H1      18.871575   20.414851   19.937777 H          1 MOL1         0.0971
       3    H2      19.663369   20.801023   21.476784 H          1 MOL1         0.0971
       4    H3      20.449428   21.221297   19.947578 H          1 MOL1         0.0971
       5    C2      20.550616   19.085764   20.408976 C.3        1 MOL1        -0.1385
       6    H4      21.549023   19.157333   20.862455 H          1 MOL1         0.0960
       7    H5      20.715994   18.823124   19.354658 H          1 MOL1         0.0960
       8    C3      19.734652   17.949847   21.078287 C.3        1 MOL1        -0.1409
       9    H6      18.658367   18.152733   20.991051 H          1 MOL1         0.0960
      10    H7      19.907732   17.025041   20.510673 H          1 MOL1         0.0960
      11    C4      20.105459   17.664776   22.556697 C.3        1 MOL1        -0.1409
      12    H8      21.159229   17.359255   22.615898 H          1 MOL1         0.0960
      13    H9      19.517491   16.801279   22.897279 H          1 MOL1         0.0960
      14    C5      19.859491   18.851437   23.517073 C.3        1 MOL1        -0.1409
      15    H10     20.538204   19.676728   23.265320 H          1 MOL1         0.0960
      16    H11     18.833321   19.223034   23.389350 H          1 MOL1         0.0960
      17    C6      20.083455   18.452733   24.992409 C.3        1 MOL1        -0.1450
      18    H12     21.107930   18.079198   25.122928 H          1 MOL1         0.0960
      19    H13     19.404282   17.632906   25.261975 H          1 MOL1         0.0960
      20    C7      19.848132   19.643119   25.938769 C.3        1 MOL1         0.0172
      21    H14     20.533656   20.456255   25.685130 H          1 MOL1         0.0934
      22    H15     18.823889   20.008024   25.823685 H          1 MOL1         0.0934
      23    N1      20.058385   19.292125   27.397534 N.4        1 MOL1        -0.5956
      24    H16     21.013649   18.966610   27.578484 H          1 MOL1         0.3624
      25    H17     19.422763   18.549704   27.707430 H          1 MOL1         0.3624
      26    H18     19.896702   20.098639   28.010582 H          1 MOL1         0.3624
@<TRIPOS>BOND
    1     1     2    1
    2     1     3    1
    3     1     4    1
    4     1     5    1
    5     5     6    1
    6     5     7    1
    7     5     8    1
    8     8     9    1
    9     8    10    1
   10     8    11    1
   11    11    12    1
   12    11    13    1
   13    11    14    1
   14    14    15    1
   15    14    16    1
   16    14    17    1
   17    17    18    1
   18    17    19    1
   19    17    20    1
   20    20    21    1
   21    20    22    1
   22    20    23    1
   23    23    24    1
   24    23    25    1
   25    23    26    1
@<TRIPOS>SUBSTRUCTURE
       1 MOL1            1 RESIDUE      1      MOL     
@<SCITEGIC>MOL_PROPERTY
VM2 Rank
SciTegic.value.IntegerValue
104

@<SCITEGIC>MOL_PROPERTY
Conf_Id
SciTegic.value.IntegerValue
727

@<SCITEGIC>MOL_PROPERTY
Probability
SciTegic.value.DoubleValue
0.03

@<SCITEGIC>MOL_PROPERTY
Sum Probability
SciTegic.value.DoubleValue
99.02

@<SCITEGIC>MOL_PROPERTY
Delta G
SciTegic.value.DoubleValue
3.307

@<SCITEGIC>MOL_PROPERTY
G
SciTegic.value.DoubleValue
51.568

@<SCITEGIC>MOL_PROPERTY
E
SciTegic.value.DoubleValue
18.875

@<SCITEGIC>MOL_PROPERTY
-TS
SciTegic.value.DoubleValue
32.693

@<SCITEGIC>MOL_PROPERTY
U+W
SciTegic.value.DoubleValue
-2.586

@<SCITEGIC>MOL_PROPERTY
U
SciTegic.value.DoubleValue
50.680

@<SCITEGIC>MOL_PROPERTY
W
SciTegic.value.DoubleValue
-53.266

@<SCITEGIC>MOL_PROPERTY
W(PB)
SciTegic.value.DoubleValue
-55.566

@<SCITEGIC>MOL_PROPERTY
W(SA)
SciTegic.value.DoubleValue
2.299

@<SCITEGIC>MOL_PROPERTY
Valence
SciTegic.value.DoubleValue
5.154

@<SCITEGIC>MOL_PROPERTY
Coulomb
SciTegic.value.DoubleValue
44.813

@<SCITEGIC>MOL_PROPERTY
VdW
SciTegic.value.DoubleValue
0.713

@<SCITEGIC>MOL_PROPERTY
VdW6
SciTegic.value.DoubleValue
-7.314

@<SCITEGIC>MOL_PROPERTY
VdW12
SciTegic.value.DoubleValue
8.027

@<SCITEGIC>MOL_PROPERTY
Bond
SciTegic.value.DoubleValue
0.213

@<SCITEGIC>MOL_PROPERTY
Angle
SciTegic.value.DoubleValue
1.193

@<SCITEGIC>MOL_PROPERTY
Pdih
SciTegic.value.DoubleValue
3.747

@<SCITEGIC>MOL_PROPERTY
Idih
SciTegic.value.DoubleValue
0.000

@<SCITEGIC>MOL_PROPERTY
Tether
SciTegic.value.DoubleValue
0.000

@<TRIPOS>MOLECULE
guest-s14_vm2.mol2 : vm2 ligand conformer 105
          26          25           1
SMALL
USER_CHARGES
 
@<TRIPOS>ATOM
       1    C1      18.799333   19.772101   20.416454 C.3        1 MOL1        -0.2400
       2    H1      19.244277   20.660703   19.950131 H          1 MOL1         0.0971
       3    H2      17.883823   19.528687   19.861936 H          1 MOL1         0.0971
       4    H3      18.507323   20.038369   21.438152 H          1 MOL1         0.0971
       5    C2      19.784407   18.580265   20.383391 C.3        1 MOL1        -0.1385
       6    H4      20.009811   18.357199   19.331084 H          1 MOL1         0.0960
       7    H5      19.305779   17.677407   20.787552 H          1 MOL1         0.0960
       8    C3      21.116937   18.861779   21.124468 C.3        1 MOL1        -0.1409
       9    H6      21.924961   18.355859   20.578070 H          1 MOL1         0.0960
      10    H7      21.356963   19.933077   21.081192 H          1 MOL1         0.0960
      11    C4      21.164533   18.363491   22.592086 C.3        1 MOL1        -0.1409
      12    H8      22.172630   18.552996   22.985989 H          1 MOL1         0.0960
      13    H9      21.028951   17.273300   22.611562 H          1 MOL1         0.0960
      14    C5      20.126276   19.027455   23.525986 C.3        1 MOL1        -0.1409
      15    H10     20.193563   20.120426   23.434824 H          1 MOL1         0.0960
      16    H11     19.113535   18.736862   23.217688 H          1 MOL1         0.0960
      17    C6      20.335965   18.619318   25.000842 C.3        1 MOL1        -0.1450
      18    H12     21.343055   18.911889   25.326770 H          1 MOL1         0.0960
      19    H13     20.270946   17.527059   25.094931 H          1 MOL1         0.0960
      20    C7      19.290803   19.275452   25.920149 C.3        1 MOL1         0.0172
      21    H14     19.362987   20.363625   25.841778 H          1 MOL1         0.0934
      22    H15     18.286621   18.973976   25.609990 H          1 MOL1         0.0934
      23    N1      19.462747   18.899138   27.377623 N.4        1 MOL1        -0.5956
      24    H16     20.379782   19.180852   27.739449 H          1 MOL1         0.3624
      25    H17     19.378317   17.887830   27.523777 H          1 MOL1         0.3624
      26    H18     18.756849   19.346665   27.972488 H          1 MOL1         0.3624
@<TRIPOS>BOND
    1     1     2    1
    2     1     3    1
    3     1     4    1
    4     1     5    1
    5     5     6    1
    6     5     7    1
    7     5     8    1
    8     8     9    1
    9     8    10    1
   10     8    11    1
   11    11    12    1
   12    11    13    1
   13    11    14    1
   14    14    15    1
   15    14    16    1
   16    14    17    1
   17    17    18    1
   18    17    19    1
   19    17    20    1
   20    20    21    1
   21    20    22    1
   22    20    23    1
   23    23    24    1
   24    23    25    1
   25    23    26    1
@<TRIPOS>SUBSTRUCTURE
       1 MOL1            1 RESIDUE      1      MOL     
@<SCITEGIC>MOL_PROPERTY
VM2 Rank
SciTegic.value.IntegerValue
105

@<SCITEGIC>MOL_PROPERTY
Conf_Id
SciTegic.value.IntegerValue
935

@<SCITEGIC>MOL_PROPERTY
Probability
SciTegic.value.DoubleValue
0.03

@<SCITEGIC>MOL_PROPERTY
Sum Probability
SciTegic.value.DoubleValue
99.04

@<SCITEGIC>MOL_PROPERTY
Delta G
SciTegic.value.DoubleValue
3.308

@<SCITEGIC>MOL_PROPERTY
G
SciTegic.value.DoubleValue
51.569

@<SCITEGIC>MOL_PROPERTY
E
SciTegic.value.DoubleValue
18.876

@<SCITEGIC>MOL_PROPERTY
-TS
SciTegic.value.DoubleValue
32.693

@<SCITEGIC>MOL_PROPERTY
U+W
SciTegic.value.DoubleValue
-2.586

@<SCITEGIC>MOL_PROPERTY
U
SciTegic.value.DoubleValue
50.680

@<SCITEGIC>MOL_PROPERTY
W
SciTegic.value.DoubleValue
-53.266

@<SCITEGIC>MOL_PROPERTY
W(PB)
SciTegic.value.DoubleValue
-55.569

@<SCITEGIC>MOL_PROPERTY
W(SA)
SciTegic.value.DoubleValue
2.303

@<SCITEGIC>MOL_PROPERTY
Valence
SciTegic.value.DoubleValue
5.154

@<SCITEGIC>MOL_PROPERTY
Coulomb
SciTegic.value.DoubleValue
44.813

@<SCITEGIC>MOL_PROPERTY
VdW
SciTegic.value.DoubleValue
0.713

@<SCITEGIC>MOL_PROPERTY
VdW6
SciTegic.value.DoubleValue
-7.314

@<SCITEGIC>MOL_PROPERTY
VdW12
SciTegic.value.DoubleValue
8.027

@<SCITEGIC>MOL_PROPERTY
Bond
SciTegic.value.DoubleValue
0.213

@<SCITEGIC>MOL_PROPERTY
Angle
SciTegic.value.DoubleValue
1.193

@<SCITEGIC>MOL_PROPERTY
Pdih
SciTegic.value.DoubleValue
3.747

@<SCITEGIC>MOL_PROPERTY
Idih
SciTegic.value.DoubleValue
0.000

@<SCITEGIC>MOL_PROPERTY
Tether
SciTegic.value.DoubleValue
0.000

@<TRIPOS>MOLECULE
guest-s14_vm2.mol2 : vm2 ligand conformer 106
          26          25           1
SMALL
USER_CHARGES
 
@<TRIPOS>ATOM
       1    C1      18.597922   19.020589   20.578803 C.3        1 MOL1        -0.2400
       2    H1      18.337896   18.374115   21.425974 H          1 MOL1         0.0971
       3    H2      18.417724   20.064583   20.865957 H          1 MOL1         0.0971
       4    H3      17.912564   18.775029   19.757305 H          1 MOL1         0.0971
       5    C2      20.063256   18.807902   20.140434 C.3        1 MOL1        -0.1385
       6    H4      20.228135   19.340258   19.193239 H          1 MOL1         0.0960
       7    H5      20.227614   17.743216   19.923282 H          1 MOL1         0.0960
       8    C3      21.115427   19.296981   21.168335 C.3        1 MOL1        -0.1409
       9    H6      22.108209   19.139769   20.724405 H          1 MOL1         0.0960
      10    H7      21.025194   20.382239   21.313821 H          1 MOL1         0.0960
      11    C4      21.076587   18.564901   22.535181 C.3        1 MOL1        -0.1409
      12    H8      22.106204   18.468951   22.906829 H          1 MOL1         0.0960
      13    H9      20.705069   17.539474   22.402386 H          1 MOL1         0.0960
      14    C5      20.243852   19.307508   23.608858 C.3        1 MOL1        -0.1409
      15    H10     20.665691   20.309584   23.768327 H          1 MOL1         0.0960
      16    H11     19.214071   19.454220   23.261931 H          1 MOL1         0.0960
      17    C6      20.224251   18.541769   24.950041 C.3        1 MOL1        -0.1450
      18    H12     21.251573   18.404368   25.313085 H          1 MOL1         0.0960
      19    H13     19.799354   17.540612   24.797648 H          1 MOL1         0.0960
      20    C7      19.401535   19.289987   26.013674 C.3        1 MOL1         0.0172
      21    H14     19.830485   20.281794   26.180382 H          1 MOL1         0.0934
      22    H15     18.373210   19.414238   25.663559 H          1 MOL1         0.0934
      23    N1      19.358170   18.569362   27.345674 N.4        1 MOL1        -0.5956
      24    H16     18.805479   19.084471   28.039671 H          1 MOL1         0.3624
      25    H17     20.294937   18.444642   27.743356 H          1 MOL1         0.3624
      26    H18     18.938997   17.637369   27.262583 H          1 MOL1         0.3624
@<TRIPOS>BOND
    1     1     2    1
    2     1     3    1
    3     1     4    1
    4     1     5    1
    5     5     6    1
    6     5     7    1
    7     5     8    1
    8     8     9    1
    9     8    10    1
   10     8    11    1
   11    11    12    1
   12    11    13    1
   13    11    14    1
   14    14    15    1
   15    14    16    1
   16    14    17    1
   17    17    18    1
   18    17    19    1
   19    17    20    1
   20    20    21    1
   21    20    22    1
   22    20    23    1
   23    23    24    1
   24    23    25    1
   25    23    26    1
@<TRIPOS>SUBSTRUCTURE
       1 MOL1            1 RESIDUE      1      MOL     
@<SCITEGIC>MOL_PROPERTY
VM2 Rank
SciTegic.value.IntegerValue
106

@<SCITEGIC>MOL_PROPERTY
Conf_Id
SciTegic.value.IntegerValue
1074

@<SCITEGIC>MOL_PROPERTY
Probability
SciTegic.value.DoubleValue
0.03

@<SCITEGIC>MOL_PROPERTY
Sum Probability
SciTegic.value.DoubleValue
99.07

@<SCITEGIC>MOL_PROPERTY
Delta G
SciTegic.value.DoubleValue
3.310

@<SCITEGIC>MOL_PROPERTY
G
SciTegic.value.DoubleValue
51.571

@<SCITEGIC>MOL_PROPERTY
E
SciTegic.value.DoubleValue
18.868

@<SCITEGIC>MOL_PROPERTY
-TS
SciTegic.value.DoubleValue
32.703

@<SCITEGIC>MOL_PROPERTY
U+W
SciTegic.value.DoubleValue
-2.594

@<SCITEGIC>MOL_PROPERTY
U
SciTegic.value.DoubleValue
50.662

@<SCITEGIC>MOL_PROPERTY
W
SciTegic.value.DoubleValue
-53.256

@<SCITEGIC>MOL_PROPERTY
W(PB)
SciTegic.value.DoubleValue
-55.567

@<SCITEGIC>MOL_PROPERTY
W(SA)
SciTegic.value.DoubleValue
2.312

@<SCITEGIC>MOL_PROPERTY
Valence
SciTegic.value.DoubleValue
5.128

@<SCITEGIC>MOL_PROPERTY
Coulomb
SciTegic.value.DoubleValue
44.842

@<SCITEGIC>MOL_PROPERTY
VdW
SciTegic.value.DoubleValue
0.692

@<SCITEGIC>MOL_PROPERTY
VdW6
SciTegic.value.DoubleValue
-7.327

@<SCITEGIC>MOL_PROPERTY
VdW12
SciTegic.value.DoubleValue
8.019

@<SCITEGIC>MOL_PROPERTY
Bond
SciTegic.value.DoubleValue
0.214

@<SCITEGIC>MOL_PROPERTY
Angle
SciTegic.value.DoubleValue
1.153

@<SCITEGIC>MOL_PROPERTY
Pdih
SciTegic.value.DoubleValue
3.761

@<SCITEGIC>MOL_PROPERTY
Idih
SciTegic.value.DoubleValue
0.000

@<SCITEGIC>MOL_PROPERTY
Tether
SciTegic.value.DoubleValue
0.000

@<TRIPOS>MOLECULE
guest-s14_vm2.mol2 : vm2 ligand conformer 107
          26          25           1
SMALL
USER_CHARGES
 
@<TRIPOS>ATOM
       1    C1      19.372760   20.247165   20.006395 C.3        1 MOL1        -0.2400
       2    H1      19.857653   21.177713   20.329184 H          1 MOL1         0.0971
       3    H2      19.397199   20.217415   18.909330 H          1 MOL1         0.0971
       4    H3      18.321039   20.283274   20.319119 H          1 MOL1         0.0971
       5    C2      20.086583   19.014622   20.600941 C.3        1 MOL1        -0.1385
       6    H4      21.125006   18.987352   20.242029 H          1 MOL1         0.0960
       7    H5      19.600299   18.099460   20.234935 H          1 MOL1         0.0960
       8    C3      20.067600   19.033017   22.145489 C.3        1 MOL1        -0.1409
       9    H6      20.559876   19.946337   22.506750 H          1 MOL1         0.0960
      10    H7      19.024369   19.067393   22.483721 H          1 MOL1         0.0960
      11    C4      20.767975   17.790664   22.743607 C.3        1 MOL1        -0.1409
      12    H8      21.750885   17.672148   22.266913 H          1 MOL1         0.0960
      13    H9      20.194398   16.889531   22.486264 H          1 MOL1         0.0960
      14    C5      20.982768   17.846015   24.278463 C.3        1 MOL1        -0.1409
      15    H10     21.530365   16.937743   24.565789 H          1 MOL1         0.0960
      16    H11     21.647695   18.681143   24.533846 H          1 MOL1         0.0960
      17    C6      19.681195   17.904340   25.122376 C.3        1 MOL1        -0.1450
      18    H12     19.880601   17.474856   26.113177 H          1 MOL1         0.0960
      19    H13     18.916122   17.262755   24.665495 H          1 MOL1         0.0960
      20    C7      19.107836   19.323289   25.322834 C.3        1 MOL1         0.0172
      21    H14     18.916681   19.796774   24.358464 H          1 MOL1         0.0934
      22    H15     18.157406   19.253919   25.858908 H          1 MOL1         0.0934
      23    N1      20.014283   20.239889   26.120894 N.4        1 MOL1        -0.5956
      24    H16     19.597234   21.167765   26.252428 H          1 MOL1         0.3624
      25    H17     20.917129   20.379179   25.657184 H          1 MOL1         0.3624
      26    H18     20.208082   19.864041   27.054777 H          1 MOL1         0.3624
@<TRIPOS>BOND
    1     1     2    1
    2     1     3    1
    3     1     4    1
    4     1     5    1
    5     5     6    1
    6     5     7    1
    7     5     8    1
    8     8     9    1
    9     8    10    1
   10     8    11    1
   11    11    12    1
   12    11    13    1
   13    11    14    1
   14    14    15    1
   15    14    16    1
   16    14    17    1
   17    17    18    1
   18    17    19    1
   19    17    20    1
   20    20    21    1
   21    20    22    1
   22    20    23    1
   23    23    24    1
   24    23    25    1
   25    23    26    1
@<TRIPOS>SUBSTRUCTURE
       1 MOL1            1 RESIDUE      1      MOL     
@<SCITEGIC>MOL_PROPERTY
VM2 Rank
SciTegic.value.IntegerValue
107

@<SCITEGIC>MOL_PROPERTY
Conf_Id
SciTegic.value.IntegerValue
1621

@<SCITEGIC>MOL_PROPERTY
Probability
SciTegic.value.DoubleValue
0.03

@<SCITEGIC>MOL_PROPERTY
Sum Probability
SciTegic.value.DoubleValue
99.10

@<SCITEGIC>MOL_PROPERTY
Delta G
SciTegic.value.DoubleValue
3.319

@<SCITEGIC>MOL_PROPERTY
G
SciTegic.value.DoubleValue
51.580

@<SCITEGIC>MOL_PROPERTY
E
SciTegic.value.DoubleValue
18.830

@<SCITEGIC>MOL_PROPERTY
-TS
SciTegic.value.DoubleValue
32.749

@<SCITEGIC>MOL_PROPERTY
U+W
SciTegic.value.DoubleValue
-2.632

@<SCITEGIC>MOL_PROPERTY
U
SciTegic.value.DoubleValue
51.398

@<SCITEGIC>MOL_PROPERTY
W
SciTegic.value.DoubleValue
-54.029

@<SCITEGIC>MOL_PROPERTY
W(PB)
SciTegic.value.DoubleValue
-56.347

@<SCITEGIC>MOL_PROPERTY
W(SA)
SciTegic.value.DoubleValue
2.318

@<SCITEGIC>MOL_PROPERTY
Valence
SciTegic.value.DoubleValue
4.709

@<SCITEGIC>MOL_PROPERTY
Coulomb
SciTegic.value.DoubleValue
46.080

@<SCITEGIC>MOL_PROPERTY
VdW
SciTegic.value.DoubleValue
0.609

@<SCITEGIC>MOL_PROPERTY
VdW6
SciTegic.value.DoubleValue
-8.057

@<SCITEGIC>MOL_PROPERTY
VdW12
SciTegic.value.DoubleValue
8.666

@<SCITEGIC>MOL_PROPERTY
Bond
SciTegic.value.DoubleValue
0.231

@<SCITEGIC>MOL_PROPERTY
Angle
SciTegic.value.DoubleValue
1.341

@<SCITEGIC>MOL_PROPERTY
Pdih
SciTegic.value.DoubleValue
3.137

@<SCITEGIC>MOL_PROPERTY
Idih
SciTegic.value.DoubleValue
0.000

@<SCITEGIC>MOL_PROPERTY
Tether
SciTegic.value.DoubleValue
0.000

@<TRIPOS>MOLECULE
guest-s14_vm2.mol2 : vm2 ligand conformer 108
          26          25           1
SMALL
USER_CHARGES
 
@<TRIPOS>ATOM
       1    C1      18.851320   18.191226   20.388208 C.3        1 MOL1        -0.2400
       2    H1      17.967854   18.223781   21.038924 H          1 MOL1         0.0971
       3    H2      18.501963   18.084160   19.353122 H          1 MOL1         0.0971
       4    H3      19.428125   17.291627   20.635895 H          1 MOL1         0.0971
       5    C2      19.702372   19.472212   20.541773 C.3        1 MOL1        -0.1385
       6    H4      19.123012   20.328543   20.169155 H          1 MOL1         0.0960
       7    H5      20.593946   19.403237   19.902961 H          1 MOL1         0.0960
       8    C3      20.124309   19.756434   22.003433 C.3        1 MOL1        -0.1409
       9    H6      20.618159   20.737294   22.036416 H          1 MOL1         0.0960
      10    H7      19.224456   19.846312   22.622279 H          1 MOL1         0.0960
      11    C4      21.088028   18.687768   22.581920 C.3        1 MOL1        -0.1409
      12    H8      21.944453   18.597784   21.899491 H          1 MOL1         0.0960
      13    H9      20.609247   17.700090   22.600950 H          1 MOL1         0.0960
      14    C5      21.628793   19.032267   23.994485 C.3        1 MOL1        -0.1409
      15    H10     22.629702   18.589637   24.093148 H          1 MOL1         0.0960
      16    H11     21.773225   20.116935   24.093781 H          1 MOL1         0.0960
      17    C6      20.766591   18.498665   25.166251 C.3        1 MOL1        -0.1450
      18    H12     21.283896   18.720380   26.109217 H          1 MOL1         0.0960
      19    H13     20.695127   17.404792   25.101348 H          1 MOL1         0.0960
      20    C7      19.351513   19.100329   25.222595 C.3        1 MOL1         0.0172
      21    H14     19.414683   20.191726   25.236965 H          1 MOL1         0.0934
      22    H15     18.787532   18.795417   24.337862 H          1 MOL1         0.0934
      23    N1      18.568076   18.660097   26.442336 N.4        1 MOL1        -0.5956
      24    H16     18.451629   17.641984   26.474619 H          1 MOL1         0.3624
      25    H17     17.627465   19.069086   26.459342 H          1 MOL1         0.3624
      26    H18     19.030157   18.938680   27.314134 H          1 MOL1         0.3624
@<TRIPOS>BOND
    1     1     2    1
    2     1     3    1
    3     1     4    1
    4     1     5    1
    5     5     6    1
    6     5     7    1
    7     5     8    1
    8     8     9    1
    9     8    10    1
   10     8    11    1
   11    11    12    1
   12    11    13    1
   13    11    14    1
   14    14    15    1
   15    14    16    1
   16    14    17    1
   17    17    18    1
   18    17    19    1
   19    17    20    1
   20    20    21    1
   21    20    22    1
   22    20    23    1
   23    23    24    1
   24    23    25    1
   25    23    26    1
@<TRIPOS>SUBSTRUCTURE
       1 MOL1            1 RESIDUE      1      MOL     
@<SCITEGIC>MOL_PROPERTY
VM2 Rank
SciTegic.value.IntegerValue
108

@<SCITEGIC>MOL_PROPERTY
Conf_Id
SciTegic.value.IntegerValue
448

@<SCITEGIC>MOL_PROPERTY
Probability
SciTegic.value.DoubleValue
0.03

@<SCITEGIC>MOL_PROPERTY
Sum Probability
SciTegic.value.DoubleValue
99.13

@<SCITEGIC>MOL_PROPERTY
Delta G
SciTegic.value.DoubleValue
3.336

@<SCITEGIC>MOL_PROPERTY
G
SciTegic.value.DoubleValue
51.597

@<SCITEGIC>MOL_PROPERTY
E
SciTegic.value.DoubleValue
19.068

@<SCITEGIC>MOL_PROPERTY
-TS
SciTegic.value.DoubleValue
32.529

@<SCITEGIC>MOL_PROPERTY
U+W
SciTegic.value.DoubleValue
-2.394

@<SCITEGIC>MOL_PROPERTY
U
SciTegic.value.DoubleValue
51.488

@<SCITEGIC>MOL_PROPERTY
W
SciTegic.value.DoubleValue
-53.882

@<SCITEGIC>MOL_PROPERTY
W(PB)
SciTegic.value.DoubleValue
-56.168

@<SCITEGIC>MOL_PROPERTY
W(SA)
SciTegic.value.DoubleValue
2.286

@<SCITEGIC>MOL_PROPERTY
Valence
SciTegic.value.DoubleValue
5.168

@<SCITEGIC>MOL_PROPERTY
Coulomb
SciTegic.value.DoubleValue
45.587

@<SCITEGIC>MOL_PROPERTY
VdW
SciTegic.value.DoubleValue
0.733

@<SCITEGIC>MOL_PROPERTY
VdW6
SciTegic.value.DoubleValue
-7.959

@<SCITEGIC>MOL_PROPERTY
VdW12
SciTegic.value.DoubleValue
8.692

@<SCITEGIC>MOL_PROPERTY
Bond
SciTegic.value.DoubleValue
0.251

@<SCITEGIC>MOL_PROPERTY
Angle
SciTegic.value.DoubleValue
1.359

@<SCITEGIC>MOL_PROPERTY
Pdih
SciTegic.value.DoubleValue
3.559

@<SCITEGIC>MOL_PROPERTY
Idih
SciTegic.value.DoubleValue
0.000

@<SCITEGIC>MOL_PROPERTY
Tether
SciTegic.value.DoubleValue
0.000

@<TRIPOS>MOLECULE
guest-s14_vm2.mol2 : vm2 ligand conformer 109
          26          25           1
SMALL
USER_CHARGES
 
@<TRIPOS>ATOM
       1    C1      19.694523   18.753274   19.339584 C.3        1 MOL1        -0.2400
       2    H1      20.278090   17.878157   19.025207 H          1 MOL1         0.0971
       3    H2      18.729535   18.719737   18.817373 H          1 MOL1         0.0971
       4    H3      20.225653   19.655328   19.008775 H          1 MOL1         0.0971
       5    C2      19.486537   18.761942   20.868914 C.3        1 MOL1        -0.1385
       6    H4      18.927359   17.863567   21.165441 H          1 MOL1         0.0960
       7    H5      18.866508   19.626981   21.139576 H          1 MOL1         0.0960
       8    C3      20.833909   18.813003   21.627297 C.3        1 MOL1        -0.1409
       9    H6      21.466798   17.981122   21.288520 H          1 MOL1         0.0960
      10    H7      21.371394   19.734841   21.365376 H          1 MOL1         0.0960
      11    C4      20.680844   18.720046   23.165268 C.3        1 MOL1        -0.1409
      12    H8      21.683423   18.664856   23.611396 H          1 MOL1         0.0960
      13    H9      20.168618   17.781933   23.412614 H          1 MOL1         0.0960
      14    C5      19.915429   19.919029   23.778835 C.3        1 MOL1        -0.1409
      15    H10     20.321344   20.850818   23.361388 H          1 MOL1         0.0960
      16    H11     18.859805   19.881017   23.478497 H          1 MOL1         0.0960
      17    C6      19.998533   20.006295   25.324255 C.3        1 MOL1        -0.1450
      18    H12     19.505382   20.936687   25.635746 H          1 MOL1         0.0960
      19    H13     21.044149   20.097019   25.647215 H          1 MOL1         0.0960
      20    C7      19.314099   18.840831   26.068324 C.3        1 MOL1         0.0172
      21    H14     19.088517   19.155338   27.090916 H          1 MOL1         0.0934
      22    H15     18.371274   18.588704   25.575577 H          1 MOL1         0.0934
      23    N1      20.157126   17.584581   26.168523 N.4        1 MOL1        -0.5956
      24    H16     21.033685   17.755343   26.672050 H          1 MOL1         0.3624
      25    H17     20.404663   17.218569   25.245082 H          1 MOL1         0.3624
      26    H18     19.665900   16.836182   26.669509 H          1 MOL1         0.3624
@<TRIPOS>BOND
    1     1     2    1
    2     1     3    1
    3     1     4    1
    4     1     5    1
    5     5     6    1
    6     5     7    1
    7     5     8    1
    8     8     9    1
    9     8    10    1
   10     8    11    1
   11    11    12    1
   12    11    13    1
   13    11    14    1
   14    14    15    1
   15    14    16    1
   16    14    17    1
   17    17    18    1
   18    17    19    1
   19    17    20    1
   20    20    21    1
   21    20    22    1
   22    20    23    1
   23    23    24    1
   24    23    25    1
   25    23    26    1
@<TRIPOS>SUBSTRUCTURE
       1 MOL1            1 RESIDUE      1      MOL     
@<SCITEGIC>MOL_PROPERTY
VM2 Rank
SciTegic.value.IntegerValue
109

@<SCITEGIC>MOL_PROPERTY
Conf_Id
SciTegic.value.IntegerValue
1353

@<SCITEGIC>MOL_PROPERTY
Probability
SciTegic.value.DoubleValue
0.03

@<SCITEGIC>MOL_PROPERTY
Sum Probability
SciTegic.value.DoubleValue
99.15

@<SCITEGIC>MOL_PROPERTY
Delta G
SciTegic.value.DoubleValue
3.346

@<SCITEGIC>MOL_PROPERTY
G
SciTegic.value.DoubleValue
51.607

@<SCITEGIC>MOL_PROPERTY
E
SciTegic.value.DoubleValue
18.965

@<SCITEGIC>MOL_PROPERTY
-TS
SciTegic.value.DoubleValue
32.642

@<SCITEGIC>MOL_PROPERTY
U+W
SciTegic.value.DoubleValue
-2.497

@<SCITEGIC>MOL_PROPERTY
U
SciTegic.value.DoubleValue
51.400

@<SCITEGIC>MOL_PROPERTY
W
SciTegic.value.DoubleValue
-53.897

@<SCITEGIC>MOL_PROPERTY
W(PB)
SciTegic.value.DoubleValue
-56.162

@<SCITEGIC>MOL_PROPERTY
W(SA)
SciTegic.value.DoubleValue
2.265

@<SCITEGIC>MOL_PROPERTY
Valence
SciTegic.value.DoubleValue
4.232

@<SCITEGIC>MOL_PROPERTY
Coulomb
SciTegic.value.DoubleValue
46.515

@<SCITEGIC>MOL_PROPERTY
VdW
SciTegic.value.DoubleValue
0.653

@<SCITEGIC>MOL_PROPERTY
VdW6
SciTegic.value.DoubleValue
-7.962

@<SCITEGIC>MOL_PROPERTY
VdW12
SciTegic.value.DoubleValue
8.615

@<SCITEGIC>MOL_PROPERTY
Bond
SciTegic.value.DoubleValue
0.225

@<SCITEGIC>MOL_PROPERTY
Angle
SciTegic.value.DoubleValue
1.150

@<SCITEGIC>MOL_PROPERTY
Pdih
SciTegic.value.DoubleValue
2.857

@<SCITEGIC>MOL_PROPERTY
Idih
SciTegic.value.DoubleValue
0.000

@<SCITEGIC>MOL_PROPERTY
Tether
SciTegic.value.DoubleValue
0.000

@<TRIPOS>MOLECULE
guest-s14_vm2.mol2 : vm2 ligand conformer 110
          26          25           1
SMALL
USER_CHARGES
 
@<TRIPOS>ATOM
       1    C1      21.086689   18.612270   20.037380 C.3        1 MOL1        -0.2400
       2    H1      22.017110   18.400512   20.580044 H          1 MOL1         0.0971
       3    H2      20.480283   17.698041   20.024493 H          1 MOL1         0.0971
       4    H3      21.350237   18.848643   18.998350 H          1 MOL1         0.0971
       5    C2      20.322445   19.790147   20.683266 C.3        1 MOL1        -0.1385
       6    H4      19.385964   19.967186   20.136084 H          1 MOL1         0.0960
       7    H5      20.920767   20.705285   20.572365 H          1 MOL1         0.0960
       8    C3      20.018515   19.573020   22.185176 C.3        1 MOL1        -0.1409
       9    H6      20.966003   19.430660   22.720470 H          1 MOL1         0.0960
      10    H7      19.560036   20.487751   22.585266 H          1 MOL1         0.0960
      11    C4      19.078597   18.371596   22.451789 C.3        1 MOL1        -0.1409
      12    H8      19.600330   17.434186   22.217248 H          1 MOL1         0.0960
      13    H9      18.224806   18.427997   21.762569 H          1 MOL1         0.0960
      14    C5      18.526728   18.296228   23.899080 C.3        1 MOL1        -0.1409
      15    H10     17.920674   19.185902   24.119822 H          1 MOL1         0.0960
      16    H11     17.832892   17.445367   23.944660 H          1 MOL1         0.0960
      17    C6      19.601572   18.099655   24.997825 C.3        1 MOL1        -0.1450
      18    H12     20.392643   17.429346   24.636219 H          1 MOL1         0.0960
      19    H13     19.135790   17.595610   25.855137 H          1 MOL1         0.0960
      20    C7      20.209156   19.425618   25.495514 C.3        1 MOL1         0.0172
      21    H14     20.695423   19.952366   24.672537 H          1 MOL1         0.0934
      22    H15     19.415798   20.066427   25.889608 H          1 MOL1         0.0934
      23    N1      21.237297   19.230465   26.590969 N.4        1 MOL1        -0.5956
      24    H16     20.836069   18.767583   27.413121 H          1 MOL1         0.3624
      25    H17     21.626600   20.123644   26.911929 H          1 MOL1         0.3624
      26    H18     22.026403   18.656318   26.276693 H          1 MOL1         0.3624
@<TRIPOS>BOND
    1     1     2    1
    2     1     3    1
    3     1     4    1
    4     1     5    1
    5     5     6    1
    6     5     7    1
    7     5     8    1
    8     8     9    1
    9     8    10    1
   10     8    11    1
   11    11    12    1
   12    11    13    1
   13    11    14    1
   14    14    15    1
   15    14    16    1
   16    14    17    1
   17    17    18    1
   18    17    19    1
   19    17    20    1
   20    20    21    1
   21    20    22    1
   22    20    23    1
   23    23    24    1
   24    23    25    1
   25    23    26    1
@<TRIPOS>SUBSTRUCTURE
       1 MOL1            1 RESIDUE      1      MOL     
@<SCITEGIC>MOL_PROPERTY
VM2 Rank
SciTegic.value.IntegerValue
110

@<SCITEGIC>MOL_PROPERTY
Conf_Id
SciTegic.value.IntegerValue
270

@<SCITEGIC>MOL_PROPERTY
Probability
SciTegic.value.DoubleValue
0.03

@<SCITEGIC>MOL_PROPERTY
Sum Probability
SciTegic.value.DoubleValue
99.18

@<SCITEGIC>MOL_PROPERTY
Delta G
SciTegic.value.DoubleValue
3.349

@<SCITEGIC>MOL_PROPERTY
G
SciTegic.value.DoubleValue
51.610

@<SCITEGIC>MOL_PROPERTY
E
SciTegic.value.DoubleValue
18.795

@<SCITEGIC>MOL_PROPERTY
-TS
SciTegic.value.DoubleValue
32.815

@<SCITEGIC>MOL_PROPERTY
U+W
SciTegic.value.DoubleValue
-2.667

@<SCITEGIC>MOL_PROPERTY
U
SciTegic.value.DoubleValue
51.327

@<SCITEGIC>MOL_PROPERTY
W
SciTegic.value.DoubleValue
-53.994

@<SCITEGIC>MOL_PROPERTY
W(PB)
SciTegic.value.DoubleValue
-56.277

@<SCITEGIC>MOL_PROPERTY
W(SA)
SciTegic.value.DoubleValue
2.284

@<SCITEGIC>MOL_PROPERTY
Valence
SciTegic.value.DoubleValue
4.992

@<SCITEGIC>MOL_PROPERTY
Coulomb
SciTegic.value.DoubleValue
45.664

@<SCITEGIC>MOL_PROPERTY
VdW
SciTegic.value.DoubleValue
0.672

@<SCITEGIC>MOL_PROPERTY
VdW6
SciTegic.value.DoubleValue
-8.113

@<SCITEGIC>MOL_PROPERTY
VdW12
SciTegic.value.DoubleValue
8.785

@<SCITEGIC>MOL_PROPERTY
Bond
SciTegic.value.DoubleValue
0.231

@<SCITEGIC>MOL_PROPERTY
Angle
SciTegic.value.DoubleValue
1.333

@<SCITEGIC>MOL_PROPERTY
Pdih
SciTegic.value.DoubleValue
3.427

@<SCITEGIC>MOL_PROPERTY
Idih
SciTegic.value.DoubleValue
0.000

@<SCITEGIC>MOL_PROPERTY
Tether
SciTegic.value.DoubleValue
0.000

@<TRIPOS>MOLECULE
guest-s14_vm2.mol2 : vm2 ligand conformer 111
          26          25           1
SMALL
USER_CHARGES
 
@<TRIPOS>ATOM
       1    C1      20.602718   20.343132   20.645784 C.3        1 MOL1        -0.2400
       2    H1      21.135440   20.901177   19.864973 H          1 MOL1         0.0971
       3    H2      19.701081   20.911179   20.908888 H          1 MOL1         0.0971
       4    H3      21.259243   20.301254   21.523544 H          1 MOL1         0.0971
       5    C2      20.243387   18.926749   20.146438 C.3        1 MOL1        -0.1385
       6    H4      21.166992   18.362938   19.954614 H          1 MOL1         0.0960
       7    H5      19.733695   19.014140   19.176727 H          1 MOL1         0.0960
       8    C3      19.333388   18.121372   21.108787 C.3        1 MOL1        -0.1409
       9    H6      18.365113   18.627383   21.224935 H          1 MOL1         0.0960
      10    H7      19.108846   17.161087   20.624184 H          1 MOL1         0.0960
      11    C4      19.957515   17.826659   22.497789 C.3        1 MOL1        -0.1409
      12    H8      21.051446   17.767942   22.413962 H          1 MOL1         0.0960
      13    H9      19.624249   16.831664   22.823919 H          1 MOL1         0.0960
      14    C5      19.552254   18.851275   23.585732 C.3        1 MOL1        -0.1409
      15    H10     19.837923   19.865651   23.282796 H          1 MOL1         0.0960
      16    H11     18.458774   18.853847   23.694485 H          1 MOL1         0.0960
      17    C6      20.200798   18.526295   24.949289 C.3        1 MOL1        -0.1450
      18    H12     21.294303   18.526618   24.847703 H          1 MOL1         0.0960
      19    H13     19.906743   17.517375   25.268173 H          1 MOL1         0.0960
      20    C7      19.786989   19.544270   26.026552 C.3        1 MOL1         0.0172
      21    H14     20.092847   20.548536   25.720987 H          1 MOL1         0.0934
      22    H15     18.699818   19.536045   26.142589 H          1 MOL1         0.0934
      23    N1      20.403951   19.259249   27.380628 N.4        1 MOL1        -0.5956
      24    H16     20.115525   19.948693   28.083416 H          1 MOL1         0.3624
      25    H17     21.428450   19.279452   27.345763 H          1 MOL1         0.3624
      26    H18     20.132219   18.337458   27.737985 H          1 MOL1         0.3624
@<TRIPOS>BOND
    1     1     2    1
    2     1     3    1
    3     1     4    1
    4     1     5    1
    5     5     6    1
    6     5     7    1
    7     5     8    1
    8     8     9    1
    9     8    10    1
   10     8    11    1
   11    11    12    1
   12    11    13    1
   13    11    14    1
   14    14    15    1
   15    14    16    1
   16    14    17    1
   17    17    18    1
   18    17    19    1
   19    17    20    1
   20    20    21    1
   21    20    22    1
   22    20    23    1
   23    23    24    1
   24    23    25    1
   25    23    26    1
@<TRIPOS>SUBSTRUCTURE
       1 MOL1            1 RESIDUE      1      MOL     
@<SCITEGIC>MOL_PROPERTY
VM2 Rank
SciTegic.value.IntegerValue
111

@<SCITEGIC>MOL_PROPERTY
Conf_Id
SciTegic.value.IntegerValue
1593

@<SCITEGIC>MOL_PROPERTY
Probability
SciTegic.value.DoubleValue
0.03

@<SCITEGIC>MOL_PROPERTY
Sum Probability
SciTegic.value.DoubleValue
99.21

@<SCITEGIC>MOL_PROPERTY
Delta G
SciTegic.value.DoubleValue
3.352

@<SCITEGIC>MOL_PROPERTY
G
SciTegic.value.DoubleValue
51.613

@<SCITEGIC>MOL_PROPERTY
E
SciTegic.value.DoubleValue
18.910

@<SCITEGIC>MOL_PROPERTY
-TS
SciTegic.value.DoubleValue
32.703

@<SCITEGIC>MOL_PROPERTY
U+W
SciTegic.value.DoubleValue
-2.552

@<SCITEGIC>MOL_PROPERTY
U
SciTegic.value.DoubleValue
50.662

@<SCITEGIC>MOL_PROPERTY
W
SciTegic.value.DoubleValue
-53.213

@<SCITEGIC>MOL_PROPERTY
W(PB)
SciTegic.value.DoubleValue
-55.519

@<SCITEGIC>MOL_PROPERTY
W(SA)
SciTegic.value.DoubleValue
2.305

@<SCITEGIC>MOL_PROPERTY
Valence
SciTegic.value.DoubleValue
5.128

@<SCITEGIC>MOL_PROPERTY
Coulomb
SciTegic.value.DoubleValue
44.842

@<SCITEGIC>MOL_PROPERTY
VdW
SciTegic.value.DoubleValue
0.692

@<SCITEGIC>MOL_PROPERTY
VdW6
SciTegic.value.DoubleValue
-7.327

@<SCITEGIC>MOL_PROPERTY
VdW12
SciTegic.value.DoubleValue
8.019

@<SCITEGIC>MOL_PROPERTY
Bond
SciTegic.value.DoubleValue
0.214

@<SCITEGIC>MOL_PROPERTY
Angle
SciTegic.value.DoubleValue
1.153

@<SCITEGIC>MOL_PROPERTY
Pdih
SciTegic.value.DoubleValue
3.761

@<SCITEGIC>MOL_PROPERTY
Idih
SciTegic.value.DoubleValue
0.000

@<SCITEGIC>MOL_PROPERTY
Tether
SciTegic.value.DoubleValue
0.000

@<TRIPOS>MOLECULE
guest-s14_vm2.mol2 : vm2 ligand conformer 112
          26          25           1
SMALL
USER_CHARGES
 
@<TRIPOS>ATOM
       1    C1      19.001271   18.150619   19.905397 C.3        1 MOL1        -0.2400
       2    H1      18.373514   19.006611   19.625318 H          1 MOL1         0.0971
       3    H2      19.760224   18.012966   19.124205 H          1 MOL1         0.0971
       4    H3      18.365264   17.255997   19.918017 H          1 MOL1         0.0971
       5    C2      19.657479   18.372154   21.284723 C.3        1 MOL1        -0.1385
       6    H4      20.256861   17.489898   21.549107 H          1 MOL1         0.0960
       7    H5      18.866950   18.466801   22.040705 H          1 MOL1         0.0960
       8    C3      20.549632   19.634366   21.295590 C.3        1 MOL1        -0.1409
       9    H6      21.252051   19.581524   20.452294 H          1 MOL1         0.0960
      10    H7      19.927137   20.522300   21.118617 H          1 MOL1         0.0960
      11    C4      21.368736   19.830530   22.597561 C.3        1 MOL1        -0.1409
      12    H8      21.991152   20.726125   22.463501 H          1 MOL1         0.0960
      13    H9      22.073902   18.998282   22.729112 H          1 MOL1         0.0960
      14    C5      20.516413   20.022932   23.879116 C.3        1 MOL1        -0.1409
      15    H10     21.027248   20.745015   24.531365 H          1 MOL1         0.0960
      16    H11     19.548510   20.476751   23.624740 H          1 MOL1         0.0960
      17    C6      20.306327   18.716454   24.681650 C.3        1 MOL1        -0.1450
      18    H12     21.281375   18.309920   24.981562 H          1 MOL1         0.0960
      19    H13     19.823085   17.954119   24.060311 H          1 MOL1         0.0960
      20    C7      19.451176   18.962368   25.937046 C.3        1 MOL1         0.0172
      21    H14     19.939401   19.703552   26.575598 H          1 MOL1         0.0934
      22    H15     18.472047   19.351519   25.644939 H          1 MOL1         0.0934
      23    N1      19.229966   17.709578   26.759916 N.4        1 MOL1        -0.5956
      24    H16     20.113850   17.307881   27.089483 H          1 MOL1         0.3624
      25    H17     18.747776   16.980317   26.224378 H          1 MOL1         0.3624
      26    H18     18.658801   17.896218   27.591404 H          1 MOL1         0.3624
@<TRIPOS>BOND
    1     1     2    1
    2     1     3    1
    3     1     4    1
    4     1     5    1
    5     5     6    1
    6     5     7    1
    7     5     8    1
    8     8     9    1
    9     8    10    1
   10     8    11    1
   11    11    12    1
   12    11    13    1
   13    11    14    1
   14    14    15    1
   15    14    16    1
   16    14    17    1
   17    17    18    1
   18    17    19    1
   19    17    20    1
   20    20    21    1
   21    20    22    1
   22    20    23    1
   23    23    24    1
   24    23    25    1
   25    23    26    1
@<TRIPOS>SUBSTRUCTURE
       1 MOL1            1 RESIDUE      1      MOL     
@<SCITEGIC>MOL_PROPERTY
VM2 Rank
SciTegic.value.IntegerValue
112

@<SCITEGIC>MOL_PROPERTY
Conf_Id
SciTegic.value.IntegerValue
1079

@<SCITEGIC>MOL_PROPERTY
Probability
SciTegic.value.DoubleValue
0.03

@<SCITEGIC>MOL_PROPERTY
Sum Probability
SciTegic.value.DoubleValue
99.23

@<SCITEGIC>MOL_PROPERTY
Delta G
SciTegic.value.DoubleValue
3.368

@<SCITEGIC>MOL_PROPERTY
G
SciTegic.value.DoubleValue
51.629

@<SCITEGIC>MOL_PROPERTY
E
SciTegic.value.DoubleValue
18.907

@<SCITEGIC>MOL_PROPERTY
-TS
SciTegic.value.DoubleValue
32.722

@<SCITEGIC>MOL_PROPERTY
U+W
SciTegic.value.DoubleValue
-2.555

@<SCITEGIC>MOL_PROPERTY
U
SciTegic.value.DoubleValue
51.214

@<SCITEGIC>MOL_PROPERTY
W
SciTegic.value.DoubleValue
-53.769

@<SCITEGIC>MOL_PROPERTY
W(PB)
SciTegic.value.DoubleValue
-56.070

@<SCITEGIC>MOL_PROPERTY
W(SA)
SciTegic.value.DoubleValue
2.302

@<SCITEGIC>MOL_PROPERTY
Valence
SciTegic.value.DoubleValue
5.193

@<SCITEGIC>MOL_PROPERTY
Coulomb
SciTegic.value.DoubleValue
45.364

@<SCITEGIC>MOL_PROPERTY
VdW
SciTegic.value.DoubleValue
0.656

@<SCITEGIC>MOL_PROPERTY
VdW6
SciTegic.value.DoubleValue
-7.405

@<SCITEGIC>MOL_PROPERTY
VdW12
SciTegic.value.DoubleValue
8.062

@<SCITEGIC>MOL_PROPERTY
Bond
SciTegic.value.DoubleValue
0.216

@<SCITEGIC>MOL_PROPERTY
Angle
SciTegic.value.DoubleValue
1.176

@<SCITEGIC>MOL_PROPERTY
Pdih
SciTegic.value.DoubleValue
3.801

@<SCITEGIC>MOL_PROPERTY
Idih
SciTegic.value.DoubleValue
0.000

@<SCITEGIC>MOL_PROPERTY
Tether
SciTegic.value.DoubleValue
0.000

@<TRIPOS>MOLECULE
guest-s14_vm2.mol2 : vm2 ligand conformer 113
          26          25           1
SMALL
USER_CHARGES
 
@<TRIPOS>ATOM
       1    C1      21.273190   19.791584   20.470096 C.3        1 MOL1        -0.2400
       2    H1      21.557802   20.596628   21.159953 H          1 MOL1         0.0971
       3    H2      21.863153   18.900814   20.718701 H          1 MOL1         0.0971
       4    H3      21.556883   20.102440   19.456291 H          1 MOL1         0.0971
       5    C2      19.755812   19.507039   20.543583 C.3        1 MOL1        -0.1385
       6    H4      19.500928   18.679940   19.866320 H          1 MOL1         0.0960
       7    H5      19.212523   20.387048   20.171796 H          1 MOL1         0.0960
       8    C3      19.260839   19.185812   21.974342 C.3        1 MOL1        -0.1409
       9    H6      19.500888   20.029236   22.631457 H          1 MOL1         0.0960
      10    H7      18.164602   19.115841   21.953581 H          1 MOL1         0.0960
      11    C4      19.839174   17.862657   22.540239 C.3        1 MOL1        -0.1409
      12    H8      20.933377   17.914277   22.612016 H          1 MOL1         0.0960
      13    H9      19.618735   17.060989   21.821905 H          1 MOL1         0.0960
      14    C5      19.245108   17.457755   23.914858 C.3        1 MOL1        -0.1409
      15    H10     18.187098   17.748194   23.973853 H          1 MOL1         0.0960
      16    H11     19.255567   16.360917   23.980534 H          1 MOL1         0.0960
      17    C6      20.018388   18.004638   25.141278 C.3        1 MOL1        -0.1450
      18    H12     21.054639   17.642292   25.113621 H          1 MOL1         0.0960
      19    H13     19.568110   17.587664   26.051952 H          1 MOL1         0.0960
      20    C7      20.016931   19.539879   25.244474 C.3        1 MOL1         0.0172
      21    H14     20.559098   19.965246   24.396583 H          1 MOL1         0.0934
      22    H15     18.988558   19.910419   25.222281 H          1 MOL1         0.0934
      23    N1      20.671557   20.049636   26.512129 N.4        1 MOL1        -0.5956
      24    H16     20.663225   21.074304   26.560032 H          1 MOL1         0.3624
      25    H17     21.651275   19.755437   26.581095 H          1 MOL1         0.3624
      26    H18     20.194089   19.707942   27.352624 H          1 MOL1         0.3624
@<TRIPOS>BOND
    1     1     2    1
    2     1     3    1
    3     1     4    1
    4     1     5    1
    5     5     6    1
    6     5     7    1
    7     5     8    1
    8     8     9    1
    9     8    10    1
   10     8    11    1
   11    11    12    1
   12    11    13    1
   13    11    14    1
   14    14    15    1
   15    14    16    1
   16    14    17    1
   17    17    18    1
   18    17    19    1
   19    17    20    1
   20    20    21    1
   21    20    22    1
   22    20    23    1
   23    23    24    1
   24    23    25    1
   25    23    26    1
@<TRIPOS>SUBSTRUCTURE
       1 MOL1            1 RESIDUE      1      MOL     
@<SCITEGIC>MOL_PROPERTY
VM2 Rank
SciTegic.value.IntegerValue
113

@<SCITEGIC>MOL_PROPERTY
Conf_Id
SciTegic.value.IntegerValue
1368

@<SCITEGIC>MOL_PROPERTY
Probability
SciTegic.value.DoubleValue
0.03

@<SCITEGIC>MOL_PROPERTY
Sum Probability
SciTegic.value.DoubleValue
99.26

@<SCITEGIC>MOL_PROPERTY
Delta G
SciTegic.value.DoubleValue
3.373

@<SCITEGIC>MOL_PROPERTY
G
SciTegic.value.DoubleValue
51.634

@<SCITEGIC>MOL_PROPERTY
E
SciTegic.value.DoubleValue
19.106

@<SCITEGIC>MOL_PROPERTY
-TS
SciTegic.value.DoubleValue
32.528

@<SCITEGIC>MOL_PROPERTY
U+W
SciTegic.value.DoubleValue
-2.356

@<SCITEGIC>MOL_PROPERTY
U
SciTegic.value.DoubleValue
51.489

@<SCITEGIC>MOL_PROPERTY
W
SciTegic.value.DoubleValue
-53.845

@<SCITEGIC>MOL_PROPERTY
W(PB)
SciTegic.value.DoubleValue
-56.163

@<SCITEGIC>MOL_PROPERTY
W(SA)
SciTegic.value.DoubleValue
2.318

@<SCITEGIC>MOL_PROPERTY
Valence
SciTegic.value.DoubleValue
5.168

@<SCITEGIC>MOL_PROPERTY
Coulomb
SciTegic.value.DoubleValue
45.587

@<SCITEGIC>MOL_PROPERTY
VdW
SciTegic.value.DoubleValue
0.733

@<SCITEGIC>MOL_PROPERTY
VdW6
SciTegic.value.DoubleValue
-7.960

@<SCITEGIC>MOL_PROPERTY
VdW12
SciTegic.value.DoubleValue
8.693

@<SCITEGIC>MOL_PROPERTY
Bond
SciTegic.value.DoubleValue
0.251

@<SCITEGIC>MOL_PROPERTY
Angle
SciTegic.value.DoubleValue
1.358

@<SCITEGIC>MOL_PROPERTY
Pdih
SciTegic.value.DoubleValue
3.560

@<SCITEGIC>MOL_PROPERTY
Idih
SciTegic.value.DoubleValue
0.000

@<SCITEGIC>MOL_PROPERTY
Tether
SciTegic.value.DoubleValue
0.000

@<TRIPOS>MOLECULE
guest-s14_vm2.mol2 : vm2 ligand conformer 114
          26          25           1
SMALL
USER_CHARGES
 
@<TRIPOS>ATOM
       1    C1      18.991362   17.965570   20.044791 C.3        1 MOL1        -0.2400
       2    H1      17.997752   18.241559   20.421311 H          1 MOL1         0.0971
       3    H2      19.180397   18.537780   19.127145 H          1 MOL1         0.0971
       4    H3      18.967139   16.900812   19.778838 H          1 MOL1         0.0971
       5    C2      20.080732   18.238304   21.103455 C.3        1 MOL1        -0.1385
       6    H4      21.055916   17.919984   20.709189 H          1 MOL1         0.0960
       7    H5      19.885550   17.619199   21.987237 H          1 MOL1         0.0960
       8    C3      20.141434   19.736897   21.486085 C.3        1 MOL1        -0.1409
       9    H6      20.372977   20.311157   20.578302 H          1 MOL1         0.0960
      10    H7      19.156004   20.087402   21.822509 H          1 MOL1         0.0960
      11    C4      21.216378   20.058115   22.557116 C.3        1 MOL1        -0.1409
      12    H8      21.650129   21.039998   22.322107 H          1 MOL1         0.0960
      13    H9      22.048561   19.343991   22.488539 H          1 MOL1         0.0960
      14    C5      20.684938   20.120145   24.012564 C.3        1 MOL1        -0.1409
      15    H10     21.513261   20.420637   24.669294 H          1 MOL1         0.0960
      16    H11     19.929358   20.914117   24.091693 H          1 MOL1         0.0960
      17    C6      20.089674   18.792200   24.532800 C.3        1 MOL1        -0.1450
      18    H12     20.809516   17.977403   24.378932 H          1 MOL1         0.0960
      19    H13     19.183103   18.543487   23.967047 H          1 MOL1         0.0960
      20    C7      19.733503   18.884965   26.026923 C.3        1 MOL1         0.0172
      21    H14     20.631297   19.118409   26.605648 H          1 MOL1         0.0934
      22    H15     19.005758   19.685938   26.182787 H          1 MOL1         0.0934
      23    N1      19.142979   17.602805   26.577266 N.4        1 MOL1        -0.5956
      24    H16     19.790949   16.813532   26.485821 H          1 MOL1         0.3624
      25    H17     18.277985   17.341443   26.092897 H          1 MOL1         0.3624
      26    H18     18.913471   17.686465   27.573640 H          1 MOL1         0.3624
@<TRIPOS>BOND
    1     1     2    1
    2     1     3    1
    3     1     4    1
    4     1     5    1
    5     5     6    1
    6     5     7    1
    7     5     8    1
    8     8     9    1
    9     8    10    1
   10     8    11    1
   11    11    12    1
   12    11    13    1
   13    11    14    1
   14    14    15    1
   15    14    16    1
   16    14    17    1
   17    17    18    1
   18    17    19    1
   19    17    20    1
   20    20    21    1
   21    20    22    1
   22    20    23    1
   23    23    24    1
   24    23    25    1
   25    23    26    1
@<TRIPOS>SUBSTRUCTURE
       1 MOL1            1 RESIDUE      1      MOL     
@<SCITEGIC>MOL_PROPERTY
VM2 Rank
SciTegic.value.IntegerValue
114

@<SCITEGIC>MOL_PROPERTY
Conf_Id
SciTegic.value.IntegerValue
732

@<SCITEGIC>MOL_PROPERTY
Probability
SciTegic.value.DoubleValue
0.02

@<SCITEGIC>MOL_PROPERTY
Sum Probability
SciTegic.value.DoubleValue
99.28

@<SCITEGIC>MOL_PROPERTY
Delta G
SciTegic.value.DoubleValue
3.395

@<SCITEGIC>MOL_PROPERTY
G
SciTegic.value.DoubleValue
51.657

@<SCITEGIC>MOL_PROPERTY
E
SciTegic.value.DoubleValue
18.929

@<SCITEGIC>MOL_PROPERTY
-TS
SciTegic.value.DoubleValue
32.728

@<SCITEGIC>MOL_PROPERTY
U+W
SciTegic.value.DoubleValue
-2.533

@<SCITEGIC>MOL_PROPERTY
U
SciTegic.value.DoubleValue
51.184

@<SCITEGIC>MOL_PROPERTY
W
SciTegic.value.DoubleValue
-53.717

@<SCITEGIC>MOL_PROPERTY
W(PB)
SciTegic.value.DoubleValue
-56.005

@<SCITEGIC>MOL_PROPERTY
W(SA)
SciTegic.value.DoubleValue
2.288

@<SCITEGIC>MOL_PROPERTY
Valence
SciTegic.value.DoubleValue
5.187

@<SCITEGIC>MOL_PROPERTY
Coulomb
SciTegic.value.DoubleValue
45.354

@<SCITEGIC>MOL_PROPERTY
VdW
SciTegic.value.DoubleValue
0.642

@<SCITEGIC>MOL_PROPERTY
VdW6
SciTegic.value.DoubleValue
-7.428

@<SCITEGIC>MOL_PROPERTY
VdW12
SciTegic.value.DoubleValue
8.069

@<SCITEGIC>MOL_PROPERTY
Bond
SciTegic.value.DoubleValue
0.216

@<SCITEGIC>MOL_PROPERTY
Angle
SciTegic.value.DoubleValue
1.173

@<SCITEGIC>MOL_PROPERTY
Pdih
SciTegic.value.DoubleValue
3.799

@<SCITEGIC>MOL_PROPERTY
Idih
SciTegic.value.DoubleValue
0.000

@<SCITEGIC>MOL_PROPERTY
Tether
SciTegic.value.DoubleValue
0.000

@<TRIPOS>MOLECULE
guest-s14_vm2.mol2 : vm2 ligand conformer 115
          26          25           1
SMALL
USER_CHARGES
 
@<TRIPOS>ATOM
       1    C1      21.275269   19.649897   19.981409 C.3        1 MOL1        -0.2400
       2    H1      21.139812   18.922556   19.170332 H          1 MOL1         0.0971
       3    H2      20.748867   20.572712   19.704714 H          1 MOL1         0.0971
       4    H3      22.346208   19.880659   20.051066 H          1 MOL1         0.0971
       5    C2      20.749750   19.092327   21.321251 C.3        1 MOL1        -0.1385
       6    H4      20.938263   19.832487   22.109940 H          1 MOL1         0.0960
       7    H5      21.312175   18.185708   21.584412 H          1 MOL1         0.0960
       8    C3      19.239486   18.770586   21.251837 C.3        1 MOL1        -0.1409
       9    H6      18.676857   19.697996   21.076888 H          1 MOL1         0.0960
      10    H7      19.051266   18.130552   20.378762 H          1 MOL1         0.0960
      11    C4      18.676866   18.055719   22.507613 C.3        1 MOL1        -0.1409
      12    H8      19.157986   17.075749   22.631652 H          1 MOL1         0.0960
      13    H9      17.616036   17.841521   22.317283 H          1 MOL1         0.0960
      14    C5      18.775397   18.875007   23.820973 C.3        1 MOL1        -0.1409
      15    H10     18.750703   19.950758   23.598158 H          1 MOL1         0.0960
      16    H11     17.881187   18.670619   24.426283 H          1 MOL1         0.0960
      17    C6      20.020486   18.527981   24.672097 C.3        1 MOL1        -0.1450
      18    H12     20.939382   18.690187   24.097591 H          1 MOL1         0.0960
      19    H13     19.996830   17.462926   24.938615 H          1 MOL1         0.0960
      20    C7      20.072218   19.371806   25.957810 C.3        1 MOL1         0.0172
      21    H14     20.112963   20.433517   25.699803 H          1 MOL1         0.0934
      22    H15     19.170049   19.196067   26.549987 H          1 MOL1         0.0934
      23    N1      21.271528   19.055677   26.828010 N.4        1 MOL1        -0.5956
      24    H16     22.155585   19.227408   26.338031 H          1 MOL1         0.3624
      25    H17     21.277983   18.075347   27.128239 H          1 MOL1         0.3624
      26    H18     21.285853   19.628332   27.679067 H          1 MOL1         0.3624
@<TRIPOS>BOND
    1     1     2    1
    2     1     3    1
    3     1     4    1
    4     1     5    1
    5     5     6    1
    6     5     7    1
    7     5     8    1
    8     8     9    1
    9     8    10    1
   10     8    11    1
   11    11    12    1
   12    11    13    1
   13    11    14    1
   14    14    15    1
   15    14    16    1
   16    14    17    1
   17    17    18    1
   18    17    19    1
   19    17    20    1
   20    20    21    1
   21    20    22    1
   22    20    23    1
   23    23    24    1
   24    23    25    1
   25    23    26    1
@<TRIPOS>SUBSTRUCTURE
       1 MOL1            1 RESIDUE      1      MOL     
@<SCITEGIC>MOL_PROPERTY
VM2 Rank
SciTegic.value.IntegerValue
115

@<SCITEGIC>MOL_PROPERTY
Conf_Id
SciTegic.value.IntegerValue
1116

@<SCITEGIC>MOL_PROPERTY
Probability
SciTegic.value.DoubleValue
0.02

@<SCITEGIC>MOL_PROPERTY
Sum Probability
SciTegic.value.DoubleValue
99.31

@<SCITEGIC>MOL_PROPERTY
Delta G
SciTegic.value.DoubleValue
3.420

@<SCITEGIC>MOL_PROPERTY
G
SciTegic.value.DoubleValue
51.681

@<SCITEGIC>MOL_PROPERTY
E
SciTegic.value.DoubleValue
18.959

@<SCITEGIC>MOL_PROPERTY
-TS
SciTegic.value.DoubleValue
32.722

@<SCITEGIC>MOL_PROPERTY
U+W
SciTegic.value.DoubleValue
-2.503

@<SCITEGIC>MOL_PROPERTY
U
SciTegic.value.DoubleValue
51.214

@<SCITEGIC>MOL_PROPERTY
W
SciTegic.value.DoubleValue
-53.717

@<SCITEGIC>MOL_PROPERTY
W(PB)
SciTegic.value.DoubleValue
-56.010

@<SCITEGIC>MOL_PROPERTY
W(SA)
SciTegic.value.DoubleValue
2.294

@<SCITEGIC>MOL_PROPERTY
Valence
SciTegic.value.DoubleValue
5.193

@<SCITEGIC>MOL_PROPERTY
Coulomb
SciTegic.value.DoubleValue
45.364

@<SCITEGIC>MOL_PROPERTY
VdW
SciTegic.value.DoubleValue
0.656

@<SCITEGIC>MOL_PROPERTY
VdW6
SciTegic.value.DoubleValue
-7.405

@<SCITEGIC>MOL_PROPERTY
VdW12
SciTegic.value.DoubleValue
8.062

@<SCITEGIC>MOL_PROPERTY
Bond
SciTegic.value.DoubleValue
0.216

@<SCITEGIC>MOL_PROPERTY
Angle
SciTegic.value.DoubleValue
1.176

@<SCITEGIC>MOL_PROPERTY
Pdih
SciTegic.value.DoubleValue
3.800

@<SCITEGIC>MOL_PROPERTY
Idih
SciTegic.value.DoubleValue
0.000

@<SCITEGIC>MOL_PROPERTY
Tether
SciTegic.value.DoubleValue
0.000

@<TRIPOS>MOLECULE
guest-s14_vm2.mol2 : vm2 ligand conformer 116
          26          25           1
SMALL
USER_CHARGES
 
@<TRIPOS>ATOM
       1    C1      20.025502   17.912631   20.002017 C.3        1 MOL1        -0.2400
       2    H1      21.104033   18.109101   20.045362 H          1 MOL1         0.0971
       3    H2      19.828978   16.958054   20.507161 H          1 MOL1         0.0971
       4    H3      19.753161   17.795636   18.945109 H          1 MOL1         0.0971
       5    C2      19.214221   19.059570   20.646210 C.3        1 MOL1        -0.1385
       6    H4      18.143793   18.874699   20.479554 H          1 MOL1         0.0960
       7    H5      19.445279   20.006164   20.137957 H          1 MOL1         0.0960
       8    C3      19.463154   19.207015   22.166587 C.3        1 MOL1        -0.1409
       9    H6      18.784740   19.976799   22.559263 H          1 MOL1         0.0960
      10    H7      19.196503   18.264345   22.661368 H          1 MOL1         0.0960
      11    C4      20.923505   19.587855   22.513409 C.3        1 MOL1        -0.1409
      12    H8      21.239397   20.415341   21.863297 H          1 MOL1         0.0960
      13    H9      21.590194   18.746008   22.283691 H          1 MOL1         0.0960
      14    C5      21.142267   20.020454   23.986467 C.3        1 MOL1        -0.1409
      15    H10     22.194233   20.320480   24.090394 H          1 MOL1         0.0960
      16    H11     20.553177   20.921303   24.207808 H          1 MOL1         0.0960
      17    C6      20.849180   18.922065   25.039471 C.3        1 MOL1        -0.1450
      18    H12     21.455246   19.124574   25.932596 H          1 MOL1         0.0960
      19    H13     21.170638   17.942190   24.662141 H          1 MOL1         0.0960
      20    C7      19.369521   18.872061   25.467430 C.3        1 MOL1         0.0172
      21    H14     19.074513   19.841434   25.878092 H          1 MOL1         0.0934
      22    H15     18.732968   18.658534   24.606956 H          1 MOL1         0.0934
      23    N1      19.093650   17.817348   26.519408 N.4        1 MOL1        -0.5956
      24    H16     19.325413   16.875739   26.186599 H          1 MOL1         0.3624
      25    H17     18.105449   17.802441   26.794323 H          1 MOL1         0.3624
      26    H18     19.638146   17.978024   27.373157 H          1 MOL1         0.3624
@<TRIPOS>BOND
    1     1     2    1
    2     1     3    1
    3     1     4    1
    4     1     5    1
    5     5     6    1
    6     5     7    1
    7     5     8    1
    8     8     9    1
    9     8    10    1
   10     8    11    1
   11    11    12    1
   12    11    13    1
   13    11    14    1
   14    14    15    1
   15    14    16    1
   16    14    17    1
   17    17    18    1
   18    17    19    1
   19    17    20    1
   20    20    21    1
   21    20    22    1
   22    20    23    1
   23    23    24    1
   24    23    25    1
   25    23    26    1
@<TRIPOS>SUBSTRUCTURE
       1 MOL1            1 RESIDUE      1      MOL     
@<SCITEGIC>MOL_PROPERTY
VM2 Rank
SciTegic.value.IntegerValue
116

@<SCITEGIC>MOL_PROPERTY
Conf_Id
SciTegic.value.IntegerValue
742

@<SCITEGIC>MOL_PROPERTY
Probability
SciTegic.value.DoubleValue
0.02

@<SCITEGIC>MOL_PROPERTY
Sum Probability
SciTegic.value.DoubleValue
99.33

@<SCITEGIC>MOL_PROPERTY
Delta G
SciTegic.value.DoubleValue
3.438

@<SCITEGIC>MOL_PROPERTY
G
SciTegic.value.DoubleValue
51.699

@<SCITEGIC>MOL_PROPERTY
E
SciTegic.value.DoubleValue
18.884

@<SCITEGIC>MOL_PROPERTY
-TS
SciTegic.value.DoubleValue
32.815

@<SCITEGIC>MOL_PROPERTY
U+W
SciTegic.value.DoubleValue
-2.578

@<SCITEGIC>MOL_PROPERTY
U
SciTegic.value.DoubleValue
51.327

@<SCITEGIC>MOL_PROPERTY
W
SciTegic.value.DoubleValue
-53.905

@<SCITEGIC>MOL_PROPERTY
W(PB)
SciTegic.value.DoubleValue
-56.204

@<SCITEGIC>MOL_PROPERTY
W(SA)
SciTegic.value.DoubleValue
2.299

@<SCITEGIC>MOL_PROPERTY
Valence
SciTegic.value.DoubleValue
4.992

@<SCITEGIC>MOL_PROPERTY
Coulomb
SciTegic.value.DoubleValue
45.664

@<SCITEGIC>MOL_PROPERTY
VdW
SciTegic.value.DoubleValue
0.672

@<SCITEGIC>MOL_PROPERTY
VdW6
SciTegic.value.DoubleValue
-8.113

@<SCITEGIC>MOL_PROPERTY
VdW12
SciTegic.value.DoubleValue
8.785

@<SCITEGIC>MOL_PROPERTY
Bond
SciTegic.value.DoubleValue
0.231

@<SCITEGIC>MOL_PROPERTY
Angle
SciTegic.value.DoubleValue
1.333

@<SCITEGIC>MOL_PROPERTY
Pdih
SciTegic.value.DoubleValue
3.427

@<SCITEGIC>MOL_PROPERTY
Idih
SciTegic.value.DoubleValue
0.000

@<SCITEGIC>MOL_PROPERTY
Tether
SciTegic.value.DoubleValue
0.000

@<TRIPOS>MOLECULE
guest-s14_vm2.mol2 : vm2 ligand conformer 117
          26          25           1
SMALL
USER_CHARGES
 
@<TRIPOS>ATOM
       1    C1      19.972702   18.963633   19.227391 C.3        1 MOL1        -0.2400
       2    H1      19.336228   19.846513   19.083632 H          1 MOL1         0.0971
       3    H2      20.823701   19.045895   18.538858 H          1 MOL1         0.0971
       4    H3      19.394237   18.075004   18.942892 H          1 MOL1         0.0971
       5    C2      20.461227   18.864410   20.688174 C.3        1 MOL1        -0.1385
       6    H4      21.069404   19.748506   20.919458 H          1 MOL1         0.0960
       7    H5      21.117788   17.989453   20.793332 H          1 MOL1         0.0960
       8    C3      19.277349   18.751432   21.678104 C.3        1 MOL1        -0.1409
       9    H6      18.649721   19.650874   21.611872 H          1 MOL1         0.0960
      10    H7      18.640872   17.909403   21.372676 H          1 MOL1         0.0960
      11    C4      19.711802   18.526560   23.147636 C.3        1 MOL1        -0.1409
      12    H8      20.365388   17.645333   23.206551 H          1 MOL1         0.0960
      13    H9      18.810096   18.293472   23.726564 H          1 MOL1         0.0960
      14    C5      20.418221   19.752712   23.778923 C.3        1 MOL1        -0.1409
      15    H10     21.268052   20.049754   23.151816 H          1 MOL1         0.0960
      16    H11     19.728737   20.608167   23.785971 H          1 MOL1         0.0960
      17    C6      20.955897   19.513214   25.213161 C.3        1 MOL1        -0.1450
      18    H12     21.499453   20.415794   25.522642 H          1 MOL1         0.0960
      19    H13     21.695690   18.701684   25.213628 H          1 MOL1         0.0960
      20    C7      19.866691   19.236898   26.270372 C.3        1 MOL1         0.0172
      21    H14     20.257323   19.494024   27.258700 H          1 MOL1         0.0934
      22    H15     18.993202   19.865391   26.077218 H          1 MOL1         0.0934
      23    N1      19.417111   17.790142   26.337240 N.4        1 MOL1        -0.5956
      24    H16     18.692767   17.649830   27.050015 H          1 MOL1         0.3624
      25    H17     20.192825   17.162616   26.572970 H          1 MOL1         0.3624
      26    H18     19.029642   17.469905   25.445424 H          1 MOL1         0.3624
@<TRIPOS>BOND
    1     1     2    1
    2     1     3    1
    3     1     4    1
    4     1     5    1
    5     5     6    1
    6     5     7    1
    7     5     8    1
    8     8     9    1
    9     8    10    1
   10     8    11    1
   11    11    12    1
   12    11    13    1
   13    11    14    1
   14    14    15    1
   15    14    16    1
   16    14    17    1
   17    17    18    1
   18    17    19    1
   19    17    20    1
   20    20    21    1
   21    20    22    1
   22    20    23    1
   23    23    24    1
   24    23    25    1
   25    23    26    1
@<TRIPOS>SUBSTRUCTURE
       1 MOL1            1 RESIDUE      1      MOL     
@<SCITEGIC>MOL_PROPERTY
VM2 Rank
SciTegic.value.IntegerValue
117

@<SCITEGIC>MOL_PROPERTY
Conf_Id
SciTegic.value.IntegerValue
1572

@<SCITEGIC>MOL_PROPERTY
Probability
SciTegic.value.DoubleValue
0.02

@<SCITEGIC>MOL_PROPERTY
Sum Probability
SciTegic.value.DoubleValue
99.35

@<SCITEGIC>MOL_PROPERTY
Delta G
SciTegic.value.DoubleValue
3.448

@<SCITEGIC>MOL_PROPERTY
G
SciTegic.value.DoubleValue
51.709

@<SCITEGIC>MOL_PROPERTY
E
SciTegic.value.DoubleValue
19.202

@<SCITEGIC>MOL_PROPERTY
-TS
SciTegic.value.DoubleValue
32.507

@<SCITEGIC>MOL_PROPERTY
U+W
SciTegic.value.DoubleValue
-2.260

@<SCITEGIC>MOL_PROPERTY
U
SciTegic.value.DoubleValue
51.605

@<SCITEGIC>MOL_PROPERTY
W
SciTegic.value.DoubleValue
-53.865

@<SCITEGIC>MOL_PROPERTY
W(PB)
SciTegic.value.DoubleValue
-56.157

@<SCITEGIC>MOL_PROPERTY
W(SA)
SciTegic.value.DoubleValue
2.292

@<SCITEGIC>MOL_PROPERTY
Valence
SciTegic.value.DoubleValue
4.452

@<SCITEGIC>MOL_PROPERTY
Coulomb
SciTegic.value.DoubleValue
46.418

@<SCITEGIC>MOL_PROPERTY
VdW
SciTegic.value.DoubleValue
0.736

@<SCITEGIC>MOL_PROPERTY
VdW6
SciTegic.value.DoubleValue
-7.820

@<SCITEGIC>MOL_PROPERTY
VdW12
SciTegic.value.DoubleValue
8.556

@<SCITEGIC>MOL_PROPERTY
Bond
SciTegic.value.DoubleValue
0.235

@<SCITEGIC>MOL_PROPERTY
Angle
SciTegic.value.DoubleValue
1.295

@<SCITEGIC>MOL_PROPERTY
Pdih
SciTegic.value.DoubleValue
2.922

@<SCITEGIC>MOL_PROPERTY
Idih
SciTegic.value.DoubleValue
0.000

@<SCITEGIC>MOL_PROPERTY
Tether
SciTegic.value.DoubleValue
0.000

@<TRIPOS>MOLECULE
guest-s14_vm2.mol2 : vm2 ligand conformer 118
          26          25           1
SMALL
USER_CHARGES
 
@<TRIPOS>ATOM
       1    C1      20.027517   17.656157   20.149595 C.3        1 MOL1        -0.2400
       2    H1      18.998078   17.863267   19.829603 H          1 MOL1         0.0971
       3    H2      20.535693   17.134525   19.328260 H          1 MOL1         0.0971
       4    H3      19.990804   16.968736   21.003680 H          1 MOL1         0.0971
       5    C2      20.772982   18.963023   20.503366 C.3        1 MOL1        -0.1385
       6    H4      20.890451   19.562078   19.589511 H          1 MOL1         0.0960
       7    H5      21.789277   18.726959   20.848521 H          1 MOL1         0.0960
       8    C3      20.043816   19.818661   21.567319 C.3        1 MOL1        -0.1409
       9    H6      20.582834   20.769585   21.679642 H          1 MOL1         0.0960
      10    H7      19.038336   20.074101   21.205326 H          1 MOL1         0.0960
      11    C4      19.942508   19.129017   22.948889 C.3        1 MOL1        -0.1409
      12    H8      20.948558   18.828904   23.266452 H          1 MOL1         0.0960
      13    H9      19.335568   18.217888   22.866106 H          1 MOL1         0.0960
      14    C5      19.315849   20.065040   24.009365 C.3        1 MOL1        -0.1409
      15    H10     19.981448   20.922330   24.181035 H          1 MOL1         0.0960
      16    H11     18.380131   20.479356   23.609083 H          1 MOL1         0.0960
      17    C6      18.998969   19.379389   25.363084 C.3        1 MOL1        -0.1450
      18    H12     18.283638   18.558940   25.218057 H          1 MOL1         0.0960
      19    H13     18.489494   20.113854   26.000930 H          1 MOL1         0.0960
      20    C7      20.237850   18.871123   26.129371 C.3        1 MOL1         0.0172
      21    H14     21.052589   19.594613   26.039620 H          1 MOL1         0.0934
      22    H15     19.985755   18.774259   27.188881 H          1 MOL1         0.0934
      23    N1      20.741509   17.516589   25.670012 N.4        1 MOL1        -0.5956
      24    H16     20.029745   16.788014   25.786881 H          1 MOL1         0.3624
      25    H17     21.565512   17.217034   26.202666 H          1 MOL1         0.3624
      26    H18     21.006804   17.524982   24.681259 H          1 MOL1         0.3624
@<TRIPOS>BOND
    1     1     2    1
    2     1     3    1
    3     1     4    1
    4     1     5    1
    5     5     6    1
    6     5     7    1
    7     5     8    1
    8     8     9    1
    9     8    10    1
   10     8    11    1
   11    11    12    1
   12    11    13    1
   13    11    14    1
   14    14    15    1
   15    14    16    1
   16    14    17    1
   17    17    18    1
   18    17    19    1
   19    17    20    1
   20    20    21    1
   21    20    22    1
   22    20    23    1
   23    23    24    1
   24    23    25    1
   25    23    26    1
@<TRIPOS>SUBSTRUCTURE
       1 MOL1            1 RESIDUE      1      MOL     
@<SCITEGIC>MOL_PROPERTY
VM2 Rank
SciTegic.value.IntegerValue
118

@<SCITEGIC>MOL_PROPERTY
Conf_Id
SciTegic.value.IntegerValue
1578

@<SCITEGIC>MOL_PROPERTY
Probability
SciTegic.value.DoubleValue
0.02

@<SCITEGIC>MOL_PROPERTY
Sum Probability
SciTegic.value.DoubleValue
99.37

@<SCITEGIC>MOL_PROPERTY
Delta G
SciTegic.value.DoubleValue
3.493

@<SCITEGIC>MOL_PROPERTY
G
SciTegic.value.DoubleValue
51.755

@<SCITEGIC>MOL_PROPERTY
E
SciTegic.value.DoubleValue
19.127

@<SCITEGIC>MOL_PROPERTY
-TS
SciTegic.value.DoubleValue
32.628

@<SCITEGIC>MOL_PROPERTY
U+W
SciTegic.value.DoubleValue
-2.335

@<SCITEGIC>MOL_PROPERTY
U
SciTegic.value.DoubleValue
51.553

@<SCITEGIC>MOL_PROPERTY
W
SciTegic.value.DoubleValue
-53.888

@<SCITEGIC>MOL_PROPERTY
W(PB)
SciTegic.value.DoubleValue
-56.152

@<SCITEGIC>MOL_PROPERTY
W(SA)
SciTegic.value.DoubleValue
2.263

@<SCITEGIC>MOL_PROPERTY
Valence
SciTegic.value.DoubleValue
4.248

@<SCITEGIC>MOL_PROPERTY
Coulomb
SciTegic.value.DoubleValue
46.644

@<SCITEGIC>MOL_PROPERTY
VdW
SciTegic.value.DoubleValue
0.661

@<SCITEGIC>MOL_PROPERTY
VdW6
SciTegic.value.DoubleValue
-7.942

@<SCITEGIC>MOL_PROPERTY
VdW12
SciTegic.value.DoubleValue
8.603

@<SCITEGIC>MOL_PROPERTY
Bond
SciTegic.value.DoubleValue
0.222

@<SCITEGIC>MOL_PROPERTY
Angle
SciTegic.value.DoubleValue
1.189

@<SCITEGIC>MOL_PROPERTY
Pdih
SciTegic.value.DoubleValue
2.837

@<SCITEGIC>MOL_PROPERTY
Idih
SciTegic.value.DoubleValue
0.000

@<SCITEGIC>MOL_PROPERTY
Tether
SciTegic.value.DoubleValue
0.000

@<TRIPOS>MOLECULE
guest-s14_vm2.mol2 : vm2 ligand conformer 119
          26          25           1
SMALL
USER_CHARGES
 
@<TRIPOS>ATOM
       1    C1      18.990835   19.925302   20.663834 C.3        1 MOL1        -0.2400
       2    H1      18.332485   19.424376   21.384164 H          1 MOL1         0.0971
       3    H2      19.363740   20.853448   21.115868 H          1 MOL1         0.0971
       4    H3      18.378060   20.197427   19.794741 H          1 MOL1         0.0971
       5    C2      20.155691   19.006314   20.235859 C.3        1 MOL1        -0.1385
       6    H4      20.684072   19.476343   19.394644 H          1 MOL1         0.0960
       7    H5      19.750543   18.060461   19.849935 H          1 MOL1         0.0960
       8    C3      21.183351   18.711822   21.358370 C.3        1 MOL1        -0.1409
       9    H6      21.981927   18.096487   20.921296 H          1 MOL1         0.0960
      10    H7      21.669854   19.643341   21.678745 H          1 MOL1         0.0960
      11    C4      20.607292   17.955270   22.583769 C.3        1 MOL1        -0.1409
      12    H8      21.378435   17.270277   22.962662 H          1 MOL1         0.0960
      13    H9      19.765083   17.321955   22.272772 H          1 MOL1         0.0960
      14    C5      20.182777   18.890642   23.742422 C.3        1 MOL1        -0.1409
      15    H10     21.053488   19.474839   24.068492 H          1 MOL1         0.0960
      16    H11     19.432901   19.612084   23.396882 H          1 MOL1         0.0960
      17    C6      19.609458   18.094762   24.938676 C.3        1 MOL1        -0.1450
      18    H12     20.364452   17.396149   25.323228 H          1 MOL1         0.0960
      19    H13     18.763084   17.484399   24.596545 H          1 MOL1         0.0960
      20    C7      19.122247   19.006106   26.081654 C.3        1 MOL1         0.0172
      21    H14     18.374689   19.707009   25.700480 H          1 MOL1         0.0934
      22    H15     18.652563   18.395190   26.857371 H          1 MOL1         0.0934
      23    N1      20.229349   19.808780   26.736414 N.4        1 MOL1        -0.5956
      24    H16     20.690836   20.434165   26.068725 H          1 MOL1         0.3624
      25    H17     20.953834   19.202983   27.135348 H          1 MOL1         0.3624
      26    H18     19.874405   20.394204   27.500354 H          1 MOL1         0.3624
@<TRIPOS>BOND
    1     1     2    1
    2     1     3    1
    3     1     4    1
    4     1     5    1
    5     5     6    1
    6     5     7    1
    7     5     8    1
    8     8     9    1
    9     8    10    1
   10     8    11    1
   11    11    12    1
   12    11    13    1
   13    11    14    1
   14    14    15    1
   15    14    16    1
   16    14    17    1
   17    17    18    1
   18    17    19    1
   19    17    20    1
   20    20    21    1
   21    20    22    1
   22    20    23    1
   23    23    24    1
   24    23    25    1
   25    23    26    1
@<TRIPOS>SUBSTRUCTURE
       1 MOL1            1 RESIDUE      1      MOL     
@<SCITEGIC>MOL_PROPERTY
VM2 Rank
SciTegic.value.IntegerValue
119

@<SCITEGIC>MOL_PROPERTY
Conf_Id
SciTegic.value.IntegerValue
795

@<SCITEGIC>MOL_PROPERTY
Probability
SciTegic.value.DoubleValue
0.02

@<SCITEGIC>MOL_PROPERTY
Sum Probability
SciTegic.value.DoubleValue
99.39

@<SCITEGIC>MOL_PROPERTY
Delta G
SciTegic.value.DoubleValue
3.526

@<SCITEGIC>MOL_PROPERTY
G
SciTegic.value.DoubleValue
51.787

@<SCITEGIC>MOL_PROPERTY
E
SciTegic.value.DoubleValue
18.982

@<SCITEGIC>MOL_PROPERTY
-TS
SciTegic.value.DoubleValue
32.805

@<SCITEGIC>MOL_PROPERTY
U+W
SciTegic.value.DoubleValue
-2.480

@<SCITEGIC>MOL_PROPERTY
U
SciTegic.value.DoubleValue
51.297

@<SCITEGIC>MOL_PROPERTY
W
SciTegic.value.DoubleValue
-53.777

@<SCITEGIC>MOL_PROPERTY
W(PB)
SciTegic.value.DoubleValue
-56.034

@<SCITEGIC>MOL_PROPERTY
W(SA)
SciTegic.value.DoubleValue
2.257

@<SCITEGIC>MOL_PROPERTY
Valence
SciTegic.value.DoubleValue
5.228

@<SCITEGIC>MOL_PROPERTY
Coulomb
SciTegic.value.DoubleValue
45.276

@<SCITEGIC>MOL_PROPERTY
VdW
SciTegic.value.DoubleValue
0.793

@<SCITEGIC>MOL_PROPERTY
VdW6
SciTegic.value.DoubleValue
-7.860

@<SCITEGIC>MOL_PROPERTY
VdW12
SciTegic.value.DoubleValue
8.653

@<SCITEGIC>MOL_PROPERTY
Bond
SciTegic.value.DoubleValue
0.234

@<SCITEGIC>MOL_PROPERTY
Angle
SciTegic.value.DoubleValue
1.198

@<SCITEGIC>MOL_PROPERTY
Pdih
SciTegic.value.DoubleValue
3.797

@<SCITEGIC>MOL_PROPERTY
Idih
SciTegic.value.DoubleValue
0.000

@<SCITEGIC>MOL_PROPERTY
Tether
SciTegic.value.DoubleValue
0.000

@<TRIPOS>MOLECULE
guest-s14_vm2.mol2 : vm2 ligand conformer 120
          26          25           1
SMALL
USER_CHARGES
 
@<TRIPOS>ATOM
       1    C1      21.314305   18.503064   20.192862 C.3        1 MOL1        -0.2400
       2    H1      21.545173   19.539717   19.915224 H          1 MOL1         0.0971
       3    H2      21.919709   18.238222   21.068478 H          1 MOL1         0.0971
       4    H3      21.631057   17.855491   19.365064 H          1 MOL1         0.0971
       5    C2      19.804376   18.325418   20.470945 C.3        1 MOL1        -0.1385
       6    H4      19.604116   17.288606   20.775293 H          1 MOL1         0.0960
       7    H5      19.251020   18.482906   19.534574 H          1 MOL1         0.0960
       8    C3      19.256824   19.300622   21.540973 C.3        1 MOL1        -0.1409
       9    H6      19.435593   20.335703   21.218596 H          1 MOL1         0.0960
      10    H7      18.166310   19.178753   21.598763 H          1 MOL1         0.0960
      11    C4      19.865297   19.078298   22.946302 C.3        1 MOL1        -0.1409
      12    H8      20.944637   19.277596   22.919977 H          1 MOL1         0.0960
      13    H9      19.729609   18.026331   23.225609 H          1 MOL1         0.0960
      14    C5      19.203469   19.991122   24.005635 C.3        1 MOL1        -0.1409
      15    H10     19.210364   21.026232   23.636917 H          1 MOL1         0.0960
      16    H11     18.146323   19.713860   24.119683 H          1 MOL1         0.0960
      17    C6      19.894582   19.969258   25.393067 C.3        1 MOL1        -0.1450
      18    H12     19.391190   20.707653   26.031205 H          1 MOL1         0.0960
      19    H13     20.936204   20.306090   25.306839 H          1 MOL1         0.0960
      20    C7      19.837673   18.607382   26.115845 C.3        1 MOL1         0.0172
      21    H14     19.976268   18.767873   27.188472 H          1 MOL1         0.0934
      22    H15     18.856942   18.148088   25.965813 H          1 MOL1         0.0934
      23    N1      20.904473   17.623836   25.675372 N.4        1 MOL1        -0.5956
      24    H16     21.848063   17.985717   25.847908 H          1 MOL1         0.3624
      25    H17     20.838659   17.414148   24.675481 H          1 MOL1         0.3624
      26    H18     20.830163   16.732498   26.177795 H          1 MOL1         0.3624
@<TRIPOS>BOND
    1     1     2    1
    2     1     3    1
    3     1     4    1
    4     1     5    1
    5     5     6    1
    6     5     7    1
    7     5     8    1
    8     8     9    1
    9     8    10    1
   10     8    11    1
   11    11    12    1
   12    11    13    1
   13    11    14    1
   14    14    15    1
   15    14    16    1
   16    14    17    1
   17    17    18    1
   18    17    19    1
   19    17    20    1
   20    20    21    1
   21    20    22    1
   22    20    23    1
   23    23    24    1
   24    23    25    1
   25    23    26    1
@<TRIPOS>SUBSTRUCTURE
       1 MOL1            1 RESIDUE      1      MOL     
@<SCITEGIC>MOL_PROPERTY
VM2 Rank
SciTegic.value.IntegerValue
120

@<SCITEGIC>MOL_PROPERTY
Conf_Id
SciTegic.value.IntegerValue
173

@<SCITEGIC>MOL_PROPERTY
Probability
SciTegic.value.DoubleValue
0.02

@<SCITEGIC>MOL_PROPERTY
Sum Probability
SciTegic.value.DoubleValue
99.41

@<SCITEGIC>MOL_PROPERTY
Delta G
SciTegic.value.DoubleValue
3.547

@<SCITEGIC>MOL_PROPERTY
G
SciTegic.value.DoubleValue
51.808

@<SCITEGIC>MOL_PROPERTY
E
SciTegic.value.DoubleValue
19.180

@<SCITEGIC>MOL_PROPERTY
-TS
SciTegic.value.DoubleValue
32.628

@<SCITEGIC>MOL_PROPERTY
U+W
SciTegic.value.DoubleValue
-2.282

@<SCITEGIC>MOL_PROPERTY
U
SciTegic.value.DoubleValue
51.553

@<SCITEGIC>MOL_PROPERTY
W
SciTegic.value.DoubleValue
-53.836

@<SCITEGIC>MOL_PROPERTY
W(PB)
SciTegic.value.DoubleValue
-56.123

@<SCITEGIC>MOL_PROPERTY
W(SA)
SciTegic.value.DoubleValue
2.288

@<SCITEGIC>MOL_PROPERTY
Valence
SciTegic.value.DoubleValue
4.249

@<SCITEGIC>MOL_PROPERTY
Coulomb
SciTegic.value.DoubleValue
46.644

@<SCITEGIC>MOL_PROPERTY
VdW
SciTegic.value.DoubleValue
0.661

@<SCITEGIC>MOL_PROPERTY
VdW6
SciTegic.value.DoubleValue
-7.942

@<SCITEGIC>MOL_PROPERTY
VdW12
SciTegic.value.DoubleValue
8.602

@<SCITEGIC>MOL_PROPERTY
Bond
SciTegic.value.DoubleValue
0.222

@<SCITEGIC>MOL_PROPERTY
Angle
SciTegic.value.DoubleValue
1.190

@<SCITEGIC>MOL_PROPERTY
Pdih
SciTegic.value.DoubleValue
2.838

@<SCITEGIC>MOL_PROPERTY
Idih
SciTegic.value.DoubleValue
0.000

@<SCITEGIC>MOL_PROPERTY
Tether
SciTegic.value.DoubleValue
0.000

@<TRIPOS>MOLECULE
guest-s14_vm2.mol2 : vm2 ligand conformer 121
          26          25           1
SMALL
USER_CHARGES
 
@<TRIPOS>ATOM
       1    C1      19.613587   20.336004   20.684495 C.3        1 MOL1        -0.2400
       2    H1      18.593514   20.345369   21.089724 H          1 MOL1         0.0971
       3    H2      20.298424   20.721215   21.449895 H          1 MOL1         0.0971
       4    H3      19.644823   21.032793   19.836924 H          1 MOL1         0.0971
       5    C2      20.020504   18.916985   20.231287 C.3        1 MOL1        -0.1385
       6    H4      21.066344   18.928269   19.893926 H          1 MOL1         0.0960
       7    H5      19.420572   18.642608   19.352335 H          1 MOL1         0.0960
       8    C3      19.835377   17.822568   21.313331 C.3        1 MOL1        -0.1409
       9    H6      18.773836   17.732916   21.581930 H          1 MOL1         0.0960
      10    H7      20.107550   16.859931   20.858749 H          1 MOL1         0.0960
      11    C4      20.699351   18.016114   22.586870 C.3        1 MOL1        -0.1409
      12    H8      21.626046   18.549895   22.335001 H          1 MOL1         0.0960
      13    H9      21.008444   17.026262   22.950314 H          1 MOL1         0.0960
      14    C5      19.952713   18.738943   23.734763 C.3        1 MOL1        -0.1409
      15    H10     19.599990   19.722475   23.402425 H          1 MOL1         0.0960
      16    H11     19.059417   18.159010   24.002062 H          1 MOL1         0.0960
      17    C6      20.853259   18.915739   24.980116 C.3        1 MOL1        -0.1450
      18    H12     21.761731   19.463612   24.696460 H          1 MOL1         0.0960
      19    H13     21.181303   17.935305   25.350375 H          1 MOL1         0.0960
      20    C7      20.153981   19.687028   26.116093 C.3        1 MOL1         0.0172
      21    H14     20.863502   19.854425   26.931027 H          1 MOL1         0.0934
      22    H15     19.820644   20.661376   25.748759 H          1 MOL1         0.0934
      23    N1      18.952228   18.965619   26.694045 N.4        1 MOL1        -0.5956
      24    H16     19.206419   18.049368   27.077308 H          1 MOL1         0.3624
      25    H17     18.227635   18.808102   25.986913 H          1 MOL1         0.3624
      26    H18     18.518091   19.498737   27.455372 H          1 MOL1         0.3624
@<TRIPOS>BOND
    1     1     2    1
    2     1     3    1
    3     1     4    1
    4     1     5    1
    5     5     6    1
    6     5     7    1
    7     5     8    1
    8     8     9    1
    9     8    10    1
   10     8    11    1
   11    11    12    1
   12    11    13    1
   13    11    14    1
   14    14    15    1
   15    14    16    1
   16    14    17    1
   17    17    18    1
   18    17    19    1
   19    17    20    1
   20    20    21    1
   21    20    22    1
   22    20    23    1
   23    23    24    1
   24    23    25    1
   25    23    26    1
@<TRIPOS>SUBSTRUCTURE
       1 MOL1            1 RESIDUE      1      MOL     
@<SCITEGIC>MOL_PROPERTY
VM2 Rank
SciTegic.value.IntegerValue
121

@<SCITEGIC>MOL_PROPERTY
Conf_Id
SciTegic.value.IntegerValue
241

@<SCITEGIC>MOL_PROPERTY
Probability
SciTegic.value.DoubleValue
0.02

@<SCITEGIC>MOL_PROPERTY
Sum Probability
SciTegic.value.DoubleValue
99.43

@<SCITEGIC>MOL_PROPERTY
Delta G
SciTegic.value.DoubleValue
3.553

@<SCITEGIC>MOL_PROPERTY
G
SciTegic.value.DoubleValue
51.814

@<SCITEGIC>MOL_PROPERTY
E
SciTegic.value.DoubleValue
19.009

@<SCITEGIC>MOL_PROPERTY
-TS
SciTegic.value.DoubleValue
32.805

@<SCITEGIC>MOL_PROPERTY
U+W
SciTegic.value.DoubleValue
-2.453

@<SCITEGIC>MOL_PROPERTY
U
SciTegic.value.DoubleValue
51.297

@<SCITEGIC>MOL_PROPERTY
W
SciTegic.value.DoubleValue
-53.750

@<SCITEGIC>MOL_PROPERTY
W(PB)
SciTegic.value.DoubleValue
-56.016

@<SCITEGIC>MOL_PROPERTY
W(SA)
SciTegic.value.DoubleValue
2.267

@<SCITEGIC>MOL_PROPERTY
Valence
SciTegic.value.DoubleValue
5.228

@<SCITEGIC>MOL_PROPERTY
Coulomb
SciTegic.value.DoubleValue
45.275

@<SCITEGIC>MOL_PROPERTY
VdW
SciTegic.value.DoubleValue
0.793

@<SCITEGIC>MOL_PROPERTY
VdW6
SciTegic.value.DoubleValue
-7.860

@<SCITEGIC>MOL_PROPERTY
VdW12
SciTegic.value.DoubleValue
8.653

@<SCITEGIC>MOL_PROPERTY
Bond
SciTegic.value.DoubleValue
0.234

@<SCITEGIC>MOL_PROPERTY
Angle
SciTegic.value.DoubleValue
1.197

@<SCITEGIC>MOL_PROPERTY
Pdih
SciTegic.value.DoubleValue
3.797

@<SCITEGIC>MOL_PROPERTY
Idih
SciTegic.value.DoubleValue
0.000

@<SCITEGIC>MOL_PROPERTY
Tether
SciTegic.value.DoubleValue
0.000

@<TRIPOS>MOLECULE
guest-s14_vm2.mol2 : vm2 ligand conformer 122
          26          25           1
SMALL
USER_CHARGES
 
@<TRIPOS>ATOM
       1    C1      18.843117   18.088130   20.348237 C.3        1 MOL1        -0.2400
       2    H1      18.124911   18.915440   20.279066 H          1 MOL1         0.0971
       3    H2      18.699575   17.445077   19.470270 H          1 MOL1         0.0971
       4    H3      18.597952   17.492288   21.235909 H          1 MOL1         0.0971
       5    C2      20.295118   18.615379   20.400095 C.3        1 MOL1        -0.1385
       6    H4      20.532211   19.093214   19.439228 H          1 MOL1         0.0960
       7    H5      20.991451   17.771465   20.503439 H          1 MOL1         0.0960
       8    C3      20.539529   19.638167   21.535919 C.3        1 MOL1        -0.1409
       9    H6      21.556152   20.040801   21.427951 H          1 MOL1         0.0960
      10    H7      19.855565   20.489767   21.416390 H          1 MOL1         0.0960
      11    C4      20.380761   19.035994   22.952636 C.3        1 MOL1        -0.1409
      12    H8      21.034746   18.158747   23.051975 H          1 MOL1         0.0960
      13    H9      19.347535   18.694748   23.082812 H          1 MOL1         0.0960
      14    C5      20.722607   20.067549   24.053909 C.3        1 MOL1        -0.1409
      15    H10     21.702439   20.513321   23.833534 H          1 MOL1         0.0960
      16    H11     19.996953   20.892040   24.020818 H          1 MOL1         0.0960
      17    C6      20.772645   19.481837   25.488338 C.3        1 MOL1        -0.1450
      18    H12     21.095814   20.282181   26.167210 H          1 MOL1         0.0960
      19    H13     21.541734   18.700930   25.555847 H          1 MOL1         0.0960
      20    C7      19.423981   18.941542   26.007517 C.3        1 MOL1         0.0172
      21    H14     19.443217   18.927946   27.100654 H          1 MOL1         0.0934
      22    H15     18.612540   19.602348   25.690977 H          1 MOL1         0.0934
      23    N1      19.103240   17.530402   25.554349 N.4        1 MOL1        -0.5956
      24    H16     19.807854   16.859412   25.877528 H          1 MOL1         0.3624
      25    H17     19.062602   17.458770   24.533954 H          1 MOL1         0.3624
      26    H18     18.198470   17.211131   25.917553 H          1 MOL1         0.3624
@<TRIPOS>BOND
    1     1     2    1
    2     1     3    1
    3     1     4    1
    4     1     5    1
    5     5     6    1
    6     5     7    1
    7     5     8    1
    8     8     9    1
    9     8    10    1
   10     8    11    1
   11    11    12    1
   12    11    13    1
   13    11    14    1
   14    14    15    1
   15    14    16    1
   16    14    17    1
   17    17    18    1
   18    17    19    1
   19    17    20    1
   20    20    21    1
   21    20    22    1
   22    20    23    1
   23    23    24    1
   24    23    25    1
   25    23    26    1
@<TRIPOS>SUBSTRUCTURE
       1 MOL1            1 RESIDUE      1      MOL     
@<SCITEGIC>MOL_PROPERTY
VM2 Rank
SciTegic.value.IntegerValue
122

@<SCITEGIC>MOL_PROPERTY
Conf_Id
SciTegic.value.IntegerValue
651

@<SCITEGIC>MOL_PROPERTY
Probability
SciTegic.value.DoubleValue
0.02

@<SCITEGIC>MOL_PROPERTY
Sum Probability
SciTegic.value.DoubleValue
99.45

@<SCITEGIC>MOL_PROPERTY
Delta G
SciTegic.value.DoubleValue
3.570

@<SCITEGIC>MOL_PROPERTY
G
SciTegic.value.DoubleValue
51.831

@<SCITEGIC>MOL_PROPERTY
E
SciTegic.value.DoubleValue
19.223

@<SCITEGIC>MOL_PROPERTY
-TS
SciTegic.value.DoubleValue
32.608

@<SCITEGIC>MOL_PROPERTY
U+W
SciTegic.value.DoubleValue
-2.239

@<SCITEGIC>MOL_PROPERTY
U
SciTegic.value.DoubleValue
51.693

@<SCITEGIC>MOL_PROPERTY
W
SciTegic.value.DoubleValue
-53.932

@<SCITEGIC>MOL_PROPERTY
W(PB)
SciTegic.value.DoubleValue
-56.176

@<SCITEGIC>MOL_PROPERTY
W(SA)
SciTegic.value.DoubleValue
2.244

@<SCITEGIC>MOL_PROPERTY
Valence
SciTegic.value.DoubleValue
4.261

@<SCITEGIC>MOL_PROPERTY
Coulomb
SciTegic.value.DoubleValue
46.778

@<SCITEGIC>MOL_PROPERTY
VdW
SciTegic.value.DoubleValue
0.653

@<SCITEGIC>MOL_PROPERTY
VdW6
SciTegic.value.DoubleValue
-7.961

@<SCITEGIC>MOL_PROPERTY
VdW12
SciTegic.value.DoubleValue
8.615

@<SCITEGIC>MOL_PROPERTY
Bond
SciTegic.value.DoubleValue
0.225

@<SCITEGIC>MOL_PROPERTY
Angle
SciTegic.value.DoubleValue
1.193

@<SCITEGIC>MOL_PROPERTY
Pdih
SciTegic.value.DoubleValue
2.844

@<SCITEGIC>MOL_PROPERTY
Idih
SciTegic.value.DoubleValue
0.000

@<SCITEGIC>MOL_PROPERTY
Tether
SciTegic.value.DoubleValue
0.000

@<TRIPOS>MOLECULE
guest-s14_vm2.mol2 : vm2 ligand conformer 123
          26          25           1
SMALL
USER_CHARGES
 
@<TRIPOS>ATOM
       1    C1      19.398689   20.564538   20.640022 C.3        1 MOL1        -0.2400
       2    H1      20.111425   20.606871   19.806107 H          1 MOL1         0.0971
       3    H2      18.396636   20.760251   20.236798 H          1 MOL1         0.0971
       4    H3      19.643866   21.373173   21.340867 H          1 MOL1         0.0971
       5    C2      19.445177   19.190395   21.340768 C.3        1 MOL1        -0.1385
       6    H4      19.165013   18.405796   20.624151 H          1 MOL1         0.0960
       7    H5      18.692161   19.171728   22.138849 H          1 MOL1         0.0960
       8    C3      20.850275   18.891415   21.915115 C.3        1 MOL1        -0.1409
       9    H6      21.582147   18.941709   21.097149 H          1 MOL1         0.0960
      10    H7      21.147873   19.673406   22.624610 H          1 MOL1         0.0960
      11    C4      20.964829   17.497459   22.581583 C.3        1 MOL1        -0.1409
      12    H8      22.005067   17.346766   22.901532 H          1 MOL1         0.0960
      13    H9      20.775213   16.728715   21.819793 H          1 MOL1         0.0960
      14    C5      20.027330   17.233709   23.791294 C.3        1 MOL1        -0.1409
      15    H10     18.974285   17.264831   23.481431 H          1 MOL1         0.0960
      16    H11     20.202599   16.199868   24.119674 H          1 MOL1         0.0960
      17    C6      20.256494   18.163797   25.009747 C.3        1 MOL1        -0.1450
      18    H12     21.328374   18.369531   25.130156 H          1 MOL1         0.0960
      19    H13     19.939184   17.633299   25.917417 H          1 MOL1         0.0960
      20    C7      19.465275   19.483445   24.927432 C.3        1 MOL1         0.0172
      21    H14     19.762064   20.048364   24.041924 H          1 MOL1         0.0934
      22    H15     18.396765   19.265074   24.850637 H          1 MOL1         0.0934
      23    N1      19.672931   20.374241   26.135038 N.4        1 MOL1        -0.5956
      24    H16     19.135329   21.244950   26.063540 H          1 MOL1         0.3624
      25    H17     20.656687   20.638996   26.249885 H          1 MOL1         0.3624
      26    H18     19.381175   19.914101   27.003530 H          1 MOL1         0.3624
@<TRIPOS>BOND
    1     1     2    1
    2     1     3    1
    3     1     4    1
    4     1     5    1
    5     5     6    1
    6     5     7    1
    7     5     8    1
    8     8     9    1
    9     8    10    1
   10     8    11    1
   11    11    12    1
   12    11    13    1
   13    11    14    1
   14    14    15    1
   15    14    16    1
   16    14    17    1
   17    17    18    1
   18    17    19    1
   19    17    20    1
   20    20    21    1
   21    20    22    1
   22    20    23    1
   23    23    24    1
   24    23    25    1
   25    23    26    1
@<TRIPOS>SUBSTRUCTURE
       1 MOL1            1 RESIDUE      1      MOL     
@<SCITEGIC>MOL_PROPERTY
VM2 Rank
SciTegic.value.IntegerValue
123

@<SCITEGIC>MOL_PROPERTY
Conf_Id
SciTegic.value.IntegerValue
1488

@<SCITEGIC>MOL_PROPERTY
Probability
SciTegic.value.DoubleValue
0.02

@<SCITEGIC>MOL_PROPERTY
Sum Probability
SciTegic.value.DoubleValue
99.47

@<SCITEGIC>MOL_PROPERTY
Delta G
SciTegic.value.DoubleValue
3.579

@<SCITEGIC>MOL_PROPERTY
G
SciTegic.value.DoubleValue
51.840

@<SCITEGIC>MOL_PROPERTY
E
SciTegic.value.DoubleValue
18.628

@<SCITEGIC>MOL_PROPERTY
-TS
SciTegic.value.DoubleValue
33.212

@<SCITEGIC>MOL_PROPERTY
U+W
SciTegic.value.DoubleValue
-2.834

@<SCITEGIC>MOL_PROPERTY
U
SciTegic.value.DoubleValue
51.403

@<SCITEGIC>MOL_PROPERTY
W
SciTegic.value.DoubleValue
-54.236

@<SCITEGIC>MOL_PROPERTY
W(PB)
SciTegic.value.DoubleValue
-56.493

@<SCITEGIC>MOL_PROPERTY
W(SA)
SciTegic.value.DoubleValue
2.256

@<SCITEGIC>MOL_PROPERTY
Valence
SciTegic.value.DoubleValue
5.068

@<SCITEGIC>MOL_PROPERTY
Coulomb
SciTegic.value.DoubleValue
46.079

@<SCITEGIC>MOL_PROPERTY
VdW
SciTegic.value.DoubleValue
0.256

@<SCITEGIC>MOL_PROPERTY
VdW6
SciTegic.value.DoubleValue
-8.819

@<SCITEGIC>MOL_PROPERTY
VdW12
SciTegic.value.DoubleValue
9.075

@<SCITEGIC>MOL_PROPERTY
Bond
SciTegic.value.DoubleValue
0.244

@<SCITEGIC>MOL_PROPERTY
Angle
SciTegic.value.DoubleValue
1.725

@<SCITEGIC>MOL_PROPERTY
Pdih
SciTegic.value.DoubleValue
3.099

@<SCITEGIC>MOL_PROPERTY
Idih
SciTegic.value.DoubleValue
0.000

@<SCITEGIC>MOL_PROPERTY
Tether
SciTegic.value.DoubleValue
0.000

@<TRIPOS>MOLECULE
guest-s14_vm2.mol2 : vm2 ligand conformer 124
          26          25           1
SMALL
USER_CHARGES
 
@<TRIPOS>ATOM
       1    C1      18.865103   20.211941   20.622375 C.3        1 MOL1        -0.2400
       2    H1      17.993508   20.282512   21.286096 H          1 MOL1         0.0971
       3    H2      19.095622   21.222230   20.260186 H          1 MOL1         0.0971
       4    H3      18.586089   19.598915   19.755455 H          1 MOL1         0.0971
       5    C2      20.077687   19.608391   21.361862 C.3        1 MOL1        -0.1385
       6    H4      20.352248   20.268761   22.194233 H          1 MOL1         0.0960
       7    H5      20.941642   19.580042   20.683330 H          1 MOL1         0.0960
       8    C3      19.776694   18.181752   21.879227 C.3        1 MOL1        -0.1409
       9    H6      18.908540   18.193227   22.549776 H          1 MOL1         0.0960
      10    H7      19.482435   17.553796   21.026983 H          1 MOL1         0.0960
      11    C4      20.982410   17.509038   22.582161 C.3        1 MOL1        -0.1409
      12    H8      21.798674   17.405226   21.854024 H          1 MOL1         0.0960
      13    H9      20.699572   16.483761   22.857807 H          1 MOL1         0.0960
      14    C5      21.534904   18.230168   23.841762 C.3        1 MOL1        -0.1409
      15    H10     22.401517   17.653302   24.193311 H          1 MOL1         0.0960
      16    H11     21.932260   19.219975   23.580461 H          1 MOL1         0.0960
      17    C6      20.533542   18.346934   25.018982 C.3        1 MOL1        -0.1450
      18    H12     21.102914   18.402348   25.956383 H          1 MOL1         0.0960
      19    H13     19.919771   17.438660   25.082811 H          1 MOL1         0.0960
      20    C7      19.633635   19.594760   24.933117 C.3        1 MOL1         0.0172
      21    H14     20.255671   20.493636   24.913353 H          1 MOL1         0.0934
      22    H15     19.039819   19.571174   24.017599 H          1 MOL1         0.0934
      23    N1      18.677026   19.716014   26.101514 N.4        1 MOL1        -0.5956
      24    H16     18.090220   20.554219   26.028479 H          1 MOL1         0.3624
      25    H17     19.173354   19.776527   26.996574 H          1 MOL1         0.3624
      26    H18     18.043637   18.912118   26.161751 H          1 MOL1         0.3624
@<TRIPOS>BOND
    1     1     2    1
    2     1     3    1
    3     1     4    1
    4     1     5    1
    5     5     6    1
    6     5     7    1
    7     5     8    1
    8     8     9    1
    9     8    10    1
   10     8    11    1
   11    11    12    1
   12    11    13    1
   13    11    14    1
   14    14    15    1
   15    14    16    1
   16    14    17    1
   17    17    18    1
   18    17    19    1
   19    17    20    1
   20    20    21    1
   21    20    22    1
   22    20    23    1
   23    23    24    1
   24    23    25    1
   25    23    26    1
@<TRIPOS>SUBSTRUCTURE
       1 MOL1            1 RESIDUE      1      MOL     
@<SCITEGIC>MOL_PROPERTY
VM2 Rank
SciTegic.value.IntegerValue
124

@<SCITEGIC>MOL_PROPERTY
Conf_Id
SciTegic.value.IntegerValue
973

@<SCITEGIC>MOL_PROPERTY
Probability
SciTegic.value.DoubleValue
0.02

@<SCITEGIC>MOL_PROPERTY
Sum Probability
SciTegic.value.DoubleValue
99.48

@<SCITEGIC>MOL_PROPERTY
Delta G
SciTegic.value.DoubleValue
3.595

@<SCITEGIC>MOL_PROPERTY
G
SciTegic.value.DoubleValue
51.856

@<SCITEGIC>MOL_PROPERTY
E
SciTegic.value.DoubleValue
18.644

@<SCITEGIC>MOL_PROPERTY
-TS
SciTegic.value.DoubleValue
33.212

@<SCITEGIC>MOL_PROPERTY
U+W
SciTegic.value.DoubleValue
-2.818

@<SCITEGIC>MOL_PROPERTY
U
SciTegic.value.DoubleValue
51.403

@<SCITEGIC>MOL_PROPERTY
W
SciTegic.value.DoubleValue
-54.221

@<SCITEGIC>MOL_PROPERTY
W(PB)
SciTegic.value.DoubleValue
-56.463

@<SCITEGIC>MOL_PROPERTY
W(SA)
SciTegic.value.DoubleValue
2.243

@<SCITEGIC>MOL_PROPERTY
Valence
SciTegic.value.DoubleValue
5.068

@<SCITEGIC>MOL_PROPERTY
Coulomb
SciTegic.value.DoubleValue
46.079

@<SCITEGIC>MOL_PROPERTY
VdW
SciTegic.value.DoubleValue
0.255

@<SCITEGIC>MOL_PROPERTY
VdW6
SciTegic.value.DoubleValue
-8.819

@<SCITEGIC>MOL_PROPERTY
VdW12
SciTegic.value.DoubleValue
9.075

@<SCITEGIC>MOL_PROPERTY
Bond
SciTegic.value.DoubleValue
0.244

@<SCITEGIC>MOL_PROPERTY
Angle
SciTegic.value.DoubleValue
1.724

@<SCITEGIC>MOL_PROPERTY
Pdih
SciTegic.value.DoubleValue
3.100

@<SCITEGIC>MOL_PROPERTY
Idih
SciTegic.value.DoubleValue
0.000

@<SCITEGIC>MOL_PROPERTY
Tether
SciTegic.value.DoubleValue
0.000

@<TRIPOS>MOLECULE
guest-s14_vm2.mol2 : vm2 ligand conformer 125
          26          25           1
SMALL
USER_CHARGES
 
@<TRIPOS>ATOM
       1    C1      20.198049   18.771650   19.594825 C.3        1 MOL1        -0.2400
       2    H1      21.232864   19.069663   19.804188 H          1 MOL1         0.0971
       3    H2      20.217961   18.099343   18.727337 H          1 MOL1         0.0971
       4    H3      19.631666   19.668311   19.311587 H          1 MOL1         0.0971
       5    C2      19.552843   18.067313   20.809929 C.3        1 MOL1        -0.1385
       6    H4      20.155482   17.192998   21.093023 H          1 MOL1         0.0960
       7    H5      18.568986   17.678701   20.511920 H          1 MOL1         0.0960
       8    C3      19.369452   18.994925   22.035404 C.3        1 MOL1        -0.1409
       9    H6      18.747727   19.855049   21.751190 H          1 MOL1         0.0960
      10    H7      18.800222   18.447849   22.795491 H          1 MOL1         0.0960
      11    C4      20.709408   19.499086   22.631212 C.3        1 MOL1        -0.1409
      12    H8      21.207087   20.129751   21.882853 H          1 MOL1         0.0960
      13    H9      21.387325   18.654912   22.817847 H          1 MOL1         0.0960
      14    C5      20.537226   20.338668   23.923992 C.3        1 MOL1        -0.1409
      15    H10     21.333725   21.095268   23.949554 H          1 MOL1         0.0960
      16    H11     19.593906   20.901172   23.889913 H          1 MOL1         0.0960
      17    C6      20.626700   19.522501   25.238125 C.3        1 MOL1        -0.1450
      18    H12     20.573021   20.217308   26.086826 H          1 MOL1         0.0960
      19    H13     21.607872   19.033112   25.299100 H          1 MOL1         0.0960
      20    C7      19.518979   18.465146   25.389193 C.3        1 MOL1         0.0172
      21    H14     18.539279   18.942299   25.300583 H          1 MOL1         0.0934
      22    H15     19.614499   17.717754   24.597541 H          1 MOL1         0.0934
      23    N1      19.568342   17.739711   26.718321 N.4        1 MOL1        -0.5956
      24    H16     18.823967   17.038336   26.797734 H          1 MOL1         0.3624
      25    H17     19.457554   18.382963   27.508970 H          1 MOL1         0.3624
      26    H18     20.457751   17.247572   26.852180 H          1 MOL1         0.3624
@<TRIPOS>BOND
    1     1     2    1
    2     1     3    1
    3     1     4    1
    4     1     5    1
    5     5     6    1
    6     5     7    1
    7     5     8    1
    8     8     9    1
    9     8    10    1
   10     8    11    1
   11    11    12    1
   12    11    13    1
   13    11    14    1
   14    14    15    1
   15    14    16    1
   16    14    17    1
   17    17    18    1
   18    17    19    1
   19    17    20    1
   20    20    21    1
   21    20    22    1
   22    20    23    1
   23    23    24    1
   24    23    25    1
   25    23    26    1
@<TRIPOS>SUBSTRUCTURE
       1 MOL1            1 RESIDUE      1      MOL     
@<SCITEGIC>MOL_PROPERTY
VM2 Rank
SciTegic.value.IntegerValue
125

@<SCITEGIC>MOL_PROPERTY
Conf_Id
SciTegic.value.IntegerValue
148

@<SCITEGIC>MOL_PROPERTY
Probability
SciTegic.value.DoubleValue
0.02

@<SCITEGIC>MOL_PROPERTY
Sum Probability
SciTegic.value.DoubleValue
99.50

@<SCITEGIC>MOL_PROPERTY
Delta G
SciTegic.value.DoubleValue
3.620

@<SCITEGIC>MOL_PROPERTY
G
SciTegic.value.DoubleValue
51.881

@<SCITEGIC>MOL_PROPERTY
E
SciTegic.value.DoubleValue
19.217

@<SCITEGIC>MOL_PROPERTY
-TS
SciTegic.value.DoubleValue
32.665

@<SCITEGIC>MOL_PROPERTY
U+W
SciTegic.value.DoubleValue
-2.245

@<SCITEGIC>MOL_PROPERTY
U
SciTegic.value.DoubleValue
51.521

@<SCITEGIC>MOL_PROPERTY
W
SciTegic.value.DoubleValue
-53.766

@<SCITEGIC>MOL_PROPERTY
W(PB)
SciTegic.value.DoubleValue
-56.075

@<SCITEGIC>MOL_PROPERTY
W(SA)
SciTegic.value.DoubleValue
2.309

@<SCITEGIC>MOL_PROPERTY
Valence
SciTegic.value.DoubleValue
5.275

@<SCITEGIC>MOL_PROPERTY
Coulomb
SciTegic.value.DoubleValue
45.448

@<SCITEGIC>MOL_PROPERTY
VdW
SciTegic.value.DoubleValue
0.798

@<SCITEGIC>MOL_PROPERTY
VdW6
SciTegic.value.DoubleValue
-7.889

@<SCITEGIC>MOL_PROPERTY
VdW12
SciTegic.value.DoubleValue
8.686

@<SCITEGIC>MOL_PROPERTY
Bond
SciTegic.value.DoubleValue
0.249

@<SCITEGIC>MOL_PROPERTY
Angle
SciTegic.value.DoubleValue
1.289

@<SCITEGIC>MOL_PROPERTY
Pdih
SciTegic.value.DoubleValue
3.738

@<SCITEGIC>MOL_PROPERTY
Idih
SciTegic.value.DoubleValue
0.000

@<SCITEGIC>MOL_PROPERTY
Tether
SciTegic.value.DoubleValue
0.000

@<TRIPOS>MOLECULE
guest-s14_vm2.mol2 : vm2 ligand conformer 126
          26          25           1
SMALL
USER_CHARGES
 
@<TRIPOS>ATOM
       1    C1      21.373623   19.757428   20.432477 C.3        1 MOL1        -0.2400
       2    H1      21.975725   19.721468   21.348596 H          1 MOL1         0.0971
       3    H2      22.061691   19.662546   19.582471 H          1 MOL1         0.0971
       4    H3      20.898395   20.745045   20.370684 H          1 MOL1         0.0971
       5    C2      20.317449   18.629378   20.401078 C.3        1 MOL1        -0.1385
       6    H4      20.814899   17.654276   20.498408 H          1 MOL1         0.0960
       7    H5      19.830283   18.628594   19.415953 H          1 MOL1         0.0960
       8    C3      19.228984   18.773291   21.492160 C.3        1 MOL1        -0.1409
       9    H6      18.720689   19.740738   21.378142 H          1 MOL1         0.0960
      10    H7      18.465215   18.001314   21.324826 H          1 MOL1         0.0960
      11    C4      19.778317   18.638791   22.932661 C.3        1 MOL1        -0.1409
      12    H8      20.491453   19.449305   23.120989 H          1 MOL1         0.0960
      13    H9      20.322556   17.689217   23.028771 H          1 MOL1         0.0960
      14    C5      18.645218   18.698171   23.984480 C.3        1 MOL1        -0.1409
      15    H10     18.174672   19.690857   23.959617 H          1 MOL1         0.0960
      16    H11     17.861127   17.980836   23.705233 H          1 MOL1         0.0960
      17    C6      19.096528   18.377503   25.432453 C.3        1 MOL1        -0.1450
      18    H12     19.507941   17.360901   25.488402 H          1 MOL1         0.0960
      19    H13     18.202907   18.376205   26.070648 H          1 MOL1         0.0960
      20    C7      20.098933   19.386821   26.029796 C.3        1 MOL1         0.0172
      21    H14     19.826219   20.402417   25.730645 H          1 MOL1         0.0934
      22    H15     20.052794   19.330854   27.120776 H          1 MOL1         0.0934
      23    N1      21.541948   19.137617   25.635895 N.4        1 MOL1        -0.5956
      24    H16     21.671343   19.177328   24.621166 H          1 MOL1         0.3624
      25    H17     21.865728   18.215898   25.946945 H          1 MOL1         0.3624
      26    H18     22.174092   19.831347   26.050133 H          1 MOL1         0.3624
@<TRIPOS>BOND
    1     1     2    1
    2     1     3    1
    3     1     4    1
    4     1     5    1
    5     5     6    1
    6     5     7    1
    7     5     8    1
    8     8     9    1
    9     8    10    1
   10     8    11    1
   11    11    12    1
   12    11    13    1
   13    11    14    1
   14    14    15    1
   15    14    16    1
   16    14    17    1
   17    17    18    1
   18    17    19    1
   19    17    20    1
   20    20    21    1
   21    20    22    1
   22    20    23    1
   23    23    24    1
   24    23    25    1
   25    23    26    1
@<TRIPOS>SUBSTRUCTURE
       1 MOL1            1 RESIDUE      1      MOL     
@<SCITEGIC>MOL_PROPERTY
VM2 Rank
SciTegic.value.IntegerValue
126

@<SCITEGIC>MOL_PROPERTY
Conf_Id
SciTegic.value.IntegerValue
715

@<SCITEGIC>MOL_PROPERTY
Probability
SciTegic.value.DoubleValue
0.02

@<SCITEGIC>MOL_PROPERTY
Sum Probability
SciTegic.value.DoubleValue
99.52

@<SCITEGIC>MOL_PROPERTY
Delta G
SciTegic.value.DoubleValue
3.625

@<SCITEGIC>MOL_PROPERTY
G
SciTegic.value.DoubleValue
51.886

@<SCITEGIC>MOL_PROPERTY
E
SciTegic.value.DoubleValue
19.277

@<SCITEGIC>MOL_PROPERTY
-TS
SciTegic.value.DoubleValue
32.609

@<SCITEGIC>MOL_PROPERTY
U+W
SciTegic.value.DoubleValue
-2.185

@<SCITEGIC>MOL_PROPERTY
U
SciTegic.value.DoubleValue
51.693

@<SCITEGIC>MOL_PROPERTY
W
SciTegic.value.DoubleValue
-53.878

@<SCITEGIC>MOL_PROPERTY
W(PB)
SciTegic.value.DoubleValue
-56.145

@<SCITEGIC>MOL_PROPERTY
W(SA)
SciTegic.value.DoubleValue
2.268

@<SCITEGIC>MOL_PROPERTY
Valence
SciTegic.value.DoubleValue
4.262

@<SCITEGIC>MOL_PROPERTY
Coulomb
SciTegic.value.DoubleValue
46.777

@<SCITEGIC>MOL_PROPERTY
VdW
SciTegic.value.DoubleValue
0.653

@<SCITEGIC>MOL_PROPERTY
VdW6
SciTegic.value.DoubleValue
-7.961

@<SCITEGIC>MOL_PROPERTY
VdW12
SciTegic.value.DoubleValue
8.615

@<SCITEGIC>MOL_PROPERTY
Bond
SciTegic.value.DoubleValue
0.225

@<SCITEGIC>MOL_PROPERTY
Angle
SciTegic.value.DoubleValue
1.192

@<SCITEGIC>MOL_PROPERTY
Pdih
SciTegic.value.DoubleValue
2.845

@<SCITEGIC>MOL_PROPERTY
Idih
SciTegic.value.DoubleValue
0.000

@<SCITEGIC>MOL_PROPERTY
Tether
SciTegic.value.DoubleValue
0.000

@<TRIPOS>MOLECULE
guest-s14_vm2.mol2 : vm2 ligand conformer 127
          26          25           1
SMALL
USER_CHARGES
 
@<TRIPOS>ATOM
       1    C1      20.249064   18.805214   19.596536 C.3        1 MOL1        -0.2400
       2    H1      19.558835   17.966141   19.748279 H          1 MOL1         0.0971
       3    H2      19.661505   19.687903   19.312545 H          1 MOL1         0.0971
       4    H3      20.899016   18.548167   18.750123 H          1 MOL1         0.0971
       5    C2      21.092926   19.082483   20.861400 C.3        1 MOL1        -0.1385
       6    H4      21.850449   19.841721   20.621562 H          1 MOL1         0.0960
       7    H5      21.645717   18.175323   21.142871 H          1 MOL1         0.0960
       8    C3      20.256124   19.579440   22.065009 C.3        1 MOL1        -0.1409
       9    H6      20.946890   19.863019   22.867177 H          1 MOL1         0.0960
      10    H7      19.723857   20.498519   21.783722 H          1 MOL1         0.0960
      11    C4      19.238714   18.529625   22.582127 C.3        1 MOL1        -0.1409
      12    H8      19.738803   17.568238   22.762902 H          1 MOL1         0.0960
      13    H9      18.498773   18.344354   21.792427 H          1 MOL1         0.0960
      14    C5      18.475210   18.979494   23.855117 C.3        1 MOL1        -0.1409
      15    H10     18.331083   20.068806   23.847693 H          1 MOL1         0.0960
      16    H11     17.466109   18.545889   23.820356 H          1 MOL1         0.0960
      17    C6      19.128351   18.534940   25.188106 C.3        1 MOL1        -0.1450
      18    H12     19.189145   17.438899   25.218391 H          1 MOL1         0.0960
      19    H13     18.471933   18.832503   26.016661 H          1 MOL1         0.0960
      20    C7      20.527804   19.130158   25.422876 C.3        1 MOL1         0.0172
      21    H14     21.213369   18.771774   24.650872 H          1 MOL1         0.0934
      22    H15     20.478927   20.220868   25.365424 H          1 MOL1         0.0934
      23    N1      21.112806   18.757647   26.769829 N.4        1 MOL1        -0.5956
      24    H16     22.045829   19.161951   26.905238 H          1 MOL1         0.3624
      25    H17     21.208877   17.742547   26.877108 H          1 MOL1         0.3624
      26    H18     20.528914   19.088952   27.544736 H          1 MOL1         0.3624
@<TRIPOS>BOND
    1     1     2    1
    2     1     3    1
    3     1     4    1
    4     1     5    1
    5     5     6    1
    6     5     7    1
    7     5     8    1
    8     8     9    1
    9     8    10    1
   10     8    11    1
   11    11    12    1
   12    11    13    1
   13    11    14    1
   14    14    15    1
   15    14    16    1
   16    14    17    1
   17    17    18    1
   18    17    19    1
   19    17    20    1
   20    20    21    1
   21    20    22    1
   22    20    23    1
   23    23    24    1
   24    23    25    1
   25    23    26    1
@<TRIPOS>SUBSTRUCTURE
       1 MOL1            1 RESIDUE      1      MOL     
@<SCITEGIC>MOL_PROPERTY
VM2 Rank
SciTegic.value.IntegerValue
127

@<SCITEGIC>MOL_PROPERTY
Conf_Id
SciTegic.value.IntegerValue
997

@<SCITEGIC>MOL_PROPERTY
Probability
SciTegic.value.DoubleValue
0.02

@<SCITEGIC>MOL_PROPERTY
Sum Probability
SciTegic.value.DoubleValue
99.53

@<SCITEGIC>MOL_PROPERTY
Delta G
SciTegic.value.DoubleValue
3.639

@<SCITEGIC>MOL_PROPERTY
G
SciTegic.value.DoubleValue
51.900

@<SCITEGIC>MOL_PROPERTY
E
SciTegic.value.DoubleValue
19.235

@<SCITEGIC>MOL_PROPERTY
-TS
SciTegic.value.DoubleValue
32.665

@<SCITEGIC>MOL_PROPERTY
U+W
SciTegic.value.DoubleValue
-2.226

@<SCITEGIC>MOL_PROPERTY
U
SciTegic.value.DoubleValue
51.521

@<SCITEGIC>MOL_PROPERTY
W
SciTegic.value.DoubleValue
-53.747

@<SCITEGIC>MOL_PROPERTY
W(PB)
SciTegic.value.DoubleValue
-56.043

@<SCITEGIC>MOL_PROPERTY
W(SA)
SciTegic.value.DoubleValue
2.296

@<SCITEGIC>MOL_PROPERTY
Valence
SciTegic.value.DoubleValue
5.275

@<SCITEGIC>MOL_PROPERTY
Coulomb
SciTegic.value.DoubleValue
45.448

@<SCITEGIC>MOL_PROPERTY
VdW
SciTegic.value.DoubleValue
0.798

@<SCITEGIC>MOL_PROPERTY
VdW6
SciTegic.value.DoubleValue
-7.889

@<SCITEGIC>MOL_PROPERTY
VdW12
SciTegic.value.DoubleValue
8.687

@<SCITEGIC>MOL_PROPERTY
Bond
SciTegic.value.DoubleValue
0.249

@<SCITEGIC>MOL_PROPERTY
Angle
SciTegic.value.DoubleValue
1.289

@<SCITEGIC>MOL_PROPERTY
Pdih
SciTegic.value.DoubleValue
3.738

@<SCITEGIC>MOL_PROPERTY
Idih
SciTegic.value.DoubleValue
0.000

@<SCITEGIC>MOL_PROPERTY
Tether
SciTegic.value.DoubleValue
0.000

@<TRIPOS>MOLECULE
guest-s14_vm2.mol2 : vm2 ligand conformer 128
          26          25           1
SMALL
USER_CHARGES
 
@<TRIPOS>ATOM
       1    C1      20.133276   19.512323   19.662224 C.3        1 MOL1        -0.2400
       2    H1      20.643053   19.445683   18.692367 H          1 MOL1         0.0971
       3    H2      19.203287   18.936159   19.584388 H          1 MOL1         0.0971
       4    H3      19.873002   20.565099   19.832288 H          1 MOL1         0.0971
       5    C2      21.045192   18.975994   20.789313 C.3        1 MOL1        -0.1385
       6    H4      22.009959   19.499931   20.738921 H          1 MOL1         0.0960
       7    H5      21.263837   17.913033   20.615904 H          1 MOL1         0.0960
       8    C3      20.453681   19.165754   22.207285 C.3        1 MOL1        -0.1409
       9    H6      21.233891   18.900588   22.931645 H          1 MOL1         0.0960
      10    H7      20.217447   20.226575   22.367940 H          1 MOL1         0.0960
      11    C4      19.198384   18.298327   22.474165 C.3        1 MOL1        -0.1409
      12    H8      19.466952   17.236019   22.394166 H          1 MOL1         0.0960
      13    H9      18.451548   18.483655   21.691939 H          1 MOL1         0.0960
      14    C5      18.517615   18.555923   23.843759 C.3        1 MOL1        -0.1409
      15    H10     18.143992   19.588292   23.890920 H          1 MOL1         0.0960
      16    H11     17.626325   17.915295   23.895493 H          1 MOL1         0.0960
      17    C6      19.400185   18.253909   25.081096 C.3        1 MOL1        -0.1450
      18    H12     20.049073   17.390882   24.881087 H          1 MOL1         0.0960
      19    H13     18.746480   17.963635   25.914417 H          1 MOL1         0.0960
      20    C7      20.240127   19.464743   25.532714 C.3        1 MOL1         0.0172
      21    H14     20.905339   19.786117   24.729177 H          1 MOL1         0.0934
      22    H15     19.576798   20.298113   25.779424 H          1 MOL1         0.0934
      23    N1      21.092541   19.172027   26.750444 N.4        1 MOL1        -0.5956
      24    H16     20.523577   18.895090   27.557148 H          1 MOL1         0.3624
      25    H17     21.639785   19.990535   27.038396 H          1 MOL1         0.3624
      26    H18     21.759346   18.412862   26.576837 H          1 MOL1         0.3624
@<TRIPOS>BOND
    1     1     2    1
    2     1     3    1
    3     1     4    1
    4     1     5    1
    5     5     6    1
    6     5     7    1
    7     5     8    1
    8     8     9    1
    9     8    10    1
   10     8    11    1
   11    11    12    1
   12    11    13    1
   13    11    14    1
   14    14    15    1
   15    14    16    1
   16    14    17    1
   17    17    18    1
   18    17    19    1
   19    17    20    1
   20    20    21    1
   21    20    22    1
   22    20    23    1
   23    23    24    1
   24    23    25    1
   25    23    26    1
@<TRIPOS>SUBSTRUCTURE
       1 MOL1            1 RESIDUE      1      MOL     
@<SCITEGIC>MOL_PROPERTY
VM2 Rank
SciTegic.value.IntegerValue
128

@<SCITEGIC>MOL_PROPERTY
Conf_Id
SciTegic.value.IntegerValue
1557

@<SCITEGIC>MOL_PROPERTY
Probability
SciTegic.value.DoubleValue
0.02

@<SCITEGIC>MOL_PROPERTY
Sum Probability
SciTegic.value.DoubleValue
99.55

@<SCITEGIC>MOL_PROPERTY
Delta G
SciTegic.value.DoubleValue
3.640

@<SCITEGIC>MOL_PROPERTY
G
SciTegic.value.DoubleValue
51.901

@<SCITEGIC>MOL_PROPERTY
E
SciTegic.value.DoubleValue
19.155

@<SCITEGIC>MOL_PROPERTY
-TS
SciTegic.value.DoubleValue
32.746

@<SCITEGIC>MOL_PROPERTY
U+W
SciTegic.value.DoubleValue
-2.307

@<SCITEGIC>MOL_PROPERTY
U
SciTegic.value.DoubleValue
51.609

@<SCITEGIC>MOL_PROPERTY
W
SciTegic.value.DoubleValue
-53.916

@<SCITEGIC>MOL_PROPERTY
W(PB)
SciTegic.value.DoubleValue
-56.225

@<SCITEGIC>MOL_PROPERTY
W(SA)
SciTegic.value.DoubleValue
2.309

@<SCITEGIC>MOL_PROPERTY
Valence
SciTegic.value.DoubleValue
5.204

@<SCITEGIC>MOL_PROPERTY
Coulomb
SciTegic.value.DoubleValue
45.645

@<SCITEGIC>MOL_PROPERTY
VdW
SciTegic.value.DoubleValue
0.760

@<SCITEGIC>MOL_PROPERTY
VdW6
SciTegic.value.DoubleValue
-7.997

@<SCITEGIC>MOL_PROPERTY
VdW12
SciTegic.value.DoubleValue
8.757

@<SCITEGIC>MOL_PROPERTY
Bond
SciTegic.value.DoubleValue
0.240

@<SCITEGIC>MOL_PROPERTY
Angle
SciTegic.value.DoubleValue
1.456

@<SCITEGIC>MOL_PROPERTY
Pdih
SciTegic.value.DoubleValue
3.508

@<SCITEGIC>MOL_PROPERTY
Idih
SciTegic.value.DoubleValue
0.000

@<SCITEGIC>MOL_PROPERTY
Tether
SciTegic.value.DoubleValue
0.000

@<TRIPOS>MOLECULE
guest-s14_vm2.mol2 : vm2 ligand conformer 129
          26          25           1
SMALL
USER_CHARGES
 
@<TRIPOS>ATOM
       1    C1      19.591143   19.154993   19.644142 C.3        1 MOL1        -0.2400
       2    H1      19.497041   18.690371   18.654089 H          1 MOL1         0.0971
       3    H2      18.718692   19.804150   19.793898 H          1 MOL1         0.0971
       4    H3      20.489361   19.784139   19.627339 H          1 MOL1         0.0971
       5    C2      19.672998   18.071256   20.743409 C.3        1 MOL1        -0.1385
       6    H4      20.571391   17.456503   20.592642 H          1 MOL1         0.0960
       7    H5      18.815103   17.393430   20.632087 H          1 MOL1         0.0960
       8    C3      19.665163   18.645741   22.180923 C.3        1 MOL1        -0.1409
       9    H6      18.776242   19.276205   22.319829 H          1 MOL1         0.0960
      10    H7      19.568452   17.802324   22.875929 H          1 MOL1         0.0960
      11    C4      20.942600   19.448237   22.532456 C.3        1 MOL1        -0.1409
      12    H8      21.102307   20.231183   21.780474 H          1 MOL1         0.0960
      13    H9      21.816411   18.784972   22.472782 H          1 MOL1         0.0960
      14    C5      20.909687   20.133153   23.923641 C.3        1 MOL1        -0.1409
      15    H10     21.845792   20.697483   24.036408 H          1 MOL1         0.0960
      16    H11     20.106123   20.882031   23.956355 H          1 MOL1         0.0960
      17    C6      20.782737   19.165606   25.127336 C.3        1 MOL1        -0.1450
      18    H12     21.267204   19.626086   25.998692 H          1 MOL1         0.0960
      19    H13     21.329892   18.235454   24.924088 H          1 MOL1         0.0960
      20    C7      19.319688   18.857742   25.501884 C.3        1 MOL1         0.0172
      21    H14     18.803236   19.788044   25.753255 H          1 MOL1         0.0934
      22    H15     18.800770   18.397949   24.658810 H          1 MOL1         0.0934
      23    N1      19.196984   17.922272   26.687209 N.4        1 MOL1        -0.5956
      24    H16     18.216860   17.733551   26.924042 H          1 MOL1         0.3624
      25    H17     19.637137   18.311082   27.527612 H          1 MOL1         0.3624
      26    H18     19.640511   17.015804   26.506377 H          1 MOL1         0.3624
@<TRIPOS>BOND
    1     1     2    1
    2     1     3    1
    3     1     4    1
    4     1     5    1
    5     5     6    1
    6     5     7    1
    7     5     8    1
    8     8     9    1
    9     8    10    1
   10     8    11    1
   11    11    12    1
   12    11    13    1
   13    11    14    1
   14    14    15    1
   15    14    16    1
   16    14    17    1
   17    17    18    1
   18    17    19    1
   19    17    20    1
   20    20    21    1
   21    20    22    1
   22    20    23    1
   23    23    24    1
   24    23    25    1
   25    23    26    1
@<TRIPOS>SUBSTRUCTURE
       1 MOL1            1 RESIDUE      1      MOL     
@<SCITEGIC>MOL_PROPERTY
VM2 Rank
SciTegic.value.IntegerValue
129

@<SCITEGIC>MOL_PROPERTY
Conf_Id
SciTegic.value.IntegerValue
951

@<SCITEGIC>MOL_PROPERTY
Probability
SciTegic.value.DoubleValue
0.02

@<SCITEGIC>MOL_PROPERTY
Sum Probability
SciTegic.value.DoubleValue
99.56

@<SCITEGIC>MOL_PROPERTY
Delta G
SciTegic.value.DoubleValue
3.646

@<SCITEGIC>MOL_PROPERTY
G
SciTegic.value.DoubleValue
51.907

@<SCITEGIC>MOL_PROPERTY
E
SciTegic.value.DoubleValue
19.162

@<SCITEGIC>MOL_PROPERTY
-TS
SciTegic.value.DoubleValue
32.745

@<SCITEGIC>MOL_PROPERTY
U+W
SciTegic.value.DoubleValue
-2.300

@<SCITEGIC>MOL_PROPERTY
U
SciTegic.value.DoubleValue
51.609

@<SCITEGIC>MOL_PROPERTY
W
SciTegic.value.DoubleValue
-53.909

@<SCITEGIC>MOL_PROPERTY
W(PB)
SciTegic.value.DoubleValue
-56.178

@<SCITEGIC>MOL_PROPERTY
W(SA)
SciTegic.value.DoubleValue
2.270

@<SCITEGIC>MOL_PROPERTY
Valence
SciTegic.value.DoubleValue
5.204

@<SCITEGIC>MOL_PROPERTY
Coulomb
SciTegic.value.DoubleValue
45.645

@<SCITEGIC>MOL_PROPERTY
VdW
SciTegic.value.DoubleValue
0.760

@<SCITEGIC>MOL_PROPERTY
VdW6
SciTegic.value.DoubleValue
-7.997

@<SCITEGIC>MOL_PROPERTY
VdW12
SciTegic.value.DoubleValue
8.757

@<SCITEGIC>MOL_PROPERTY
Bond
SciTegic.value.DoubleValue
0.240

@<SCITEGIC>MOL_PROPERTY
Angle
SciTegic.value.DoubleValue
1.456

@<SCITEGIC>MOL_PROPERTY
Pdih
SciTegic.value.DoubleValue
3.507

@<SCITEGIC>MOL_PROPERTY
Idih
SciTegic.value.DoubleValue
0.000

@<SCITEGIC>MOL_PROPERTY
Tether
SciTegic.value.DoubleValue
0.000

@<TRIPOS>MOLECULE
guest-s14_vm2.mol2 : vm2 ligand conformer 130
          26          25           1
SMALL
USER_CHARGES
 
@<TRIPOS>ATOM
       1    C1      20.376606   20.298099   19.994827 C.3        1 MOL1        -0.2400
       2    H1      19.761256   19.954188   19.153223 H          1 MOL1         0.0971
       3    H2      19.866545   21.148145   20.466484 H          1 MOL1         0.0971
       4    H3      21.330142   20.660215   19.589032 H          1 MOL1         0.0971
       5    C2      20.613405   19.160658   21.010734 C.3        1 MOL1        -0.1385
       6    H4      21.265905   19.526063   21.812620 H          1 MOL1         0.0960
       7    H5      21.154738   18.341602   20.516921 H          1 MOL1         0.0960
       8    C3      19.280791   18.626072   21.588751 C.3        1 MOL1        -0.1409
       9    H6      18.700017   19.445314   22.034424 H          1 MOL1         0.0960
      10    H7      18.675859   18.245643   20.754021 H          1 MOL1         0.0960
      11    C4      19.467704   17.482114   22.619443 C.3        1 MOL1        -0.1409
      12    H8      20.380287   16.912385   22.396341 H          1 MOL1         0.0960
      13    H9      18.638666   16.771728   22.494947 H          1 MOL1         0.0960
      14    C5      19.471121   17.938187   24.101413 C.3        1 MOL1        -0.1409
      15    H10     18.508643   18.413770   24.332953 H          1 MOL1         0.0960
      16    H11     19.532431   17.043723   24.736838 H          1 MOL1         0.0960
      17    C6      20.629776   18.895545   24.470867 C.3        1 MOL1        -0.1450
      18    H12     20.505664   19.856723   23.956455 H          1 MOL1         0.0960
      19    H13     21.580888   18.467462   24.127729 H          1 MOL1         0.0960
      20    C7      20.727133   19.148483   25.987600 C.3        1 MOL1         0.0172
      21    H14     20.851565   18.197257   26.512077 H          1 MOL1         0.0934
      22    H15     21.601949   19.770177   26.196724 H          1 MOL1         0.0934
      23    N1      19.514464   19.849844   26.567364 N.4        1 MOL1        -0.5956
      24    H16     18.659619   19.300503   26.435336 H          1 MOL1         0.3624
      25    H17     19.358260   20.764052   26.130655 H          1 MOL1         0.3624
      26    H18     19.614405   20.012294   27.575285 H          1 MOL1         0.3624
@<TRIPOS>BOND
    1     1     2    1
    2     1     3    1
    3     1     4    1
    4     1     5    1
    5     5     6    1
    6     5     7    1
    7     5     8    1
    8     8     9    1
    9     8    10    1
   10     8    11    1
   11    11    12    1
   12    11    13    1
   13    11    14    1
   14    14    15    1
   15    14    16    1
   16    14    17    1
   17    17    18    1
   18    17    19    1
   19    17    20    1
   20    20    21    1
   21    20    22    1
   22    20    23    1
   23    23    24    1
   24    23    25    1
   25    23    26    1
@<TRIPOS>SUBSTRUCTURE
       1 MOL1            1 RESIDUE      1      MOL     
@<SCITEGIC>MOL_PROPERTY
VM2 Rank
SciTegic.value.IntegerValue
130

@<SCITEGIC>MOL_PROPERTY
Conf_Id
SciTegic.value.IntegerValue
1050

@<SCITEGIC>MOL_PROPERTY
Probability
SciTegic.value.DoubleValue
0.02

@<SCITEGIC>MOL_PROPERTY
Sum Probability
SciTegic.value.DoubleValue
99.58

@<SCITEGIC>MOL_PROPERTY
Delta G
SciTegic.value.DoubleValue
3.650

@<SCITEGIC>MOL_PROPERTY
G
SciTegic.value.DoubleValue
51.911

@<SCITEGIC>MOL_PROPERTY
E
SciTegic.value.DoubleValue
19.080

@<SCITEGIC>MOL_PROPERTY
-TS
SciTegic.value.DoubleValue
32.831

@<SCITEGIC>MOL_PROPERTY
U+W
SciTegic.value.DoubleValue
-2.382

@<SCITEGIC>MOL_PROPERTY
U
SciTegic.value.DoubleValue
51.463

@<SCITEGIC>MOL_PROPERTY
W
SciTegic.value.DoubleValue
-53.845

@<SCITEGIC>MOL_PROPERTY
W(PB)
SciTegic.value.DoubleValue
-56.121

@<SCITEGIC>MOL_PROPERTY
W(SA)
SciTegic.value.DoubleValue
2.276

@<SCITEGIC>MOL_PROPERTY
Valence
SciTegic.value.DoubleValue
5.277

@<SCITEGIC>MOL_PROPERTY
Coulomb
SciTegic.value.DoubleValue
45.445

@<SCITEGIC>MOL_PROPERTY
VdW
SciTegic.value.DoubleValue
0.741

@<SCITEGIC>MOL_PROPERTY
VdW6
SciTegic.value.DoubleValue
-7.943

@<SCITEGIC>MOL_PROPERTY
VdW12
SciTegic.value.DoubleValue
8.684

@<SCITEGIC>MOL_PROPERTY
Bond
SciTegic.value.DoubleValue
0.235

@<SCITEGIC>MOL_PROPERTY
Angle
SciTegic.value.DoubleValue
1.187

@<SCITEGIC>MOL_PROPERTY
Pdih
SciTegic.value.DoubleValue
3.855

@<SCITEGIC>MOL_PROPERTY
Idih
SciTegic.value.DoubleValue
0.000

@<SCITEGIC>MOL_PROPERTY
Tether
SciTegic.value.DoubleValue
0.000

@<TRIPOS>MOLECULE
guest-s14_vm2.mol2 : vm2 ligand conformer 131
          26          25           1
SMALL
USER_CHARGES
 
@<TRIPOS>ATOM
       1    C1      19.174546   20.301234   20.734104 C.3        1 MOL1        -0.2400
       2    H1      19.901519   21.052368   20.398926 H          1 MOL1         0.0971
       3    H2      18.247817   20.459343   20.167471 H          1 MOL1         0.0971
       4    H3      18.954264   20.493008   21.789850 H          1 MOL1         0.0971
       5    C2      19.712907   18.870181   20.501203 C.3        1 MOL1        -0.1385
       6    H4      19.882809   18.744490   19.422667 H          1 MOL1         0.0960
       7    H5      18.952175   18.126190   20.775697 H          1 MOL1         0.0960
       8    C3      21.041765   18.582669   21.246570 C.3        1 MOL1        -0.1409
       9    H6      21.652439   17.923829   20.613792 H          1 MOL1         0.0960
      10    H7      21.623537   19.508135   21.356998 H          1 MOL1         0.0960
      11    C4      20.880063   17.886837   22.622855 C.3        1 MOL1        -0.1409
      12    H8      21.882401   17.672401   23.018676 H          1 MOL1         0.0960
      13    H9      20.391724   16.912481   22.483517 H          1 MOL1         0.0960
      14    C5      20.093106   18.712041   23.667073 C.3        1 MOL1        -0.1409
      15    H10     20.520585   19.721557   23.728633 H          1 MOL1         0.0960
      16    H11     19.049853   18.817844   23.342298 H          1 MOL1         0.0960
      17    C6      20.117177   18.043476   25.061950 C.3        1 MOL1        -0.1450
      18    H12     21.151222   17.958821   25.421863 H          1 MOL1         0.0960
      19    H13     19.728608   17.019545   24.980865 H          1 MOL1         0.0960
      20    C7      19.272175   18.805144   26.101231 C.3        1 MOL1         0.0172
      21    H14     18.242981   18.896085   25.743617 H          1 MOL1         0.0934
      22    H15     19.258767   18.243772   27.039441 H          1 MOL1         0.0934
      23    N1      19.789260   20.197418   26.406013 N.4        1 MOL1        -0.5956
      24    H16     19.212785   20.671944   27.109452 H          1 MOL1         0.3624
      25    H17     19.794278   20.791777   25.571430 H          1 MOL1         0.3624
      26    H18     20.747684   20.176246   26.769339 H          1 MOL1         0.3624
@<TRIPOS>BOND
    1     1     2    1
    2     1     3    1
    3     1     4    1
    4     1     5    1
    5     5     6    1
    6     5     7    1
    7     5     8    1
    8     8     9    1
    9     8    10    1
   10     8    11    1
   11    11    12    1
   12    11    13    1
   13    11    14    1
   14    14    15    1
   15    14    16    1
   16    14    17    1
   17    17    18    1
   18    17    19    1
   19    17    20    1
   20    20    21    1
   21    20    22    1
   22    20    23    1
   23    23    24    1
   24    23    25    1
   25    23    26    1
@<TRIPOS>SUBSTRUCTURE
       1 MOL1            1 RESIDUE      1      MOL     
@<SCITEGIC>MOL_PROPERTY
VM2 Rank
SciTegic.value.IntegerValue
131

@<SCITEGIC>MOL_PROPERTY
Conf_Id
SciTegic.value.IntegerValue
1350

@<SCITEGIC>MOL_PROPERTY
Probability
SciTegic.value.DoubleValue
0.01

@<SCITEGIC>MOL_PROPERTY
Sum Probability
SciTegic.value.DoubleValue
99.60

@<SCITEGIC>MOL_PROPERTY
Delta G
SciTegic.value.DoubleValue
3.692

@<SCITEGIC>MOL_PROPERTY
G
SciTegic.value.DoubleValue
51.953

@<SCITEGIC>MOL_PROPERTY
E
SciTegic.value.DoubleValue
19.155

@<SCITEGIC>MOL_PROPERTY
-TS
SciTegic.value.DoubleValue
32.798

@<SCITEGIC>MOL_PROPERTY
U+W
SciTegic.value.DoubleValue
-2.307

@<SCITEGIC>MOL_PROPERTY
U
SciTegic.value.DoubleValue
51.512

@<SCITEGIC>MOL_PROPERTY
W
SciTegic.value.DoubleValue
-53.819

@<SCITEGIC>MOL_PROPERTY
W(PB)
SciTegic.value.DoubleValue
-56.098

@<SCITEGIC>MOL_PROPERTY
W(SA)
SciTegic.value.DoubleValue
2.279

@<SCITEGIC>MOL_PROPERTY
Valence
SciTegic.value.DoubleValue
5.253

@<SCITEGIC>MOL_PROPERTY
Coulomb
SciTegic.value.DoubleValue
45.470

@<SCITEGIC>MOL_PROPERTY
VdW
SciTegic.value.DoubleValue
0.789

@<SCITEGIC>MOL_PROPERTY
VdW6
SciTegic.value.DoubleValue
-7.872

@<SCITEGIC>MOL_PROPERTY
VdW12
SciTegic.value.DoubleValue
8.661

@<SCITEGIC>MOL_PROPERTY
Bond
SciTegic.value.DoubleValue
0.233

@<SCITEGIC>MOL_PROPERTY
Angle
SciTegic.value.DoubleValue
1.235

@<SCITEGIC>MOL_PROPERTY
Pdih
SciTegic.value.DoubleValue
3.785

@<SCITEGIC>MOL_PROPERTY
Idih
SciTegic.value.DoubleValue
0.000

@<SCITEGIC>MOL_PROPERTY
Tether
SciTegic.value.DoubleValue
0.000

@<TRIPOS>MOLECULE
guest-s14_vm2.mol2 : vm2 ligand conformer 132
          26          25           1
SMALL
USER_CHARGES
 
@<TRIPOS>ATOM
       1    C1      18.540075   18.528295   20.925932 C.3        1 MOL1        -0.2400
       2    H1      18.620690   17.816152   21.756340 H          1 MOL1         0.0971
       3    H2      18.054656   19.441912   21.292647 H          1 MOL1         0.0971
       4    H3      17.882082   18.078036   20.171490 H          1 MOL1         0.0971
       5    C2      19.924962   18.838656   20.317245 C.3        1 MOL1        -0.1385
       6    H4      19.781873   19.413311   19.391472 H          1 MOL1         0.0960
       7    H5      20.410775   17.898916   20.019593 H          1 MOL1         0.0960
       8    C3      20.869202   19.638466   21.250870 C.3        1 MOL1        -0.1409
       9    H6      21.794053   19.838281   20.692193 H          1 MOL1         0.0960
      10    H7      20.437294   20.624648   21.469946 H          1 MOL1         0.0960
      11    C4      21.248172   18.911522   22.567536 C.3        1 MOL1        -0.1409
      12    H8      22.288197   19.163984   22.816571 H          1 MOL1         0.0960
      13    H9      21.227871   17.823518   22.415898 H          1 MOL1         0.0960
      14    C5      20.354671   19.306989   23.768640 C.3        1 MOL1        -0.1409
      15    H10     20.438865   20.388502   23.943760 H          1 MOL1         0.0960
      16    H11     19.302383   19.108568   23.537145 H          1 MOL1         0.0960
      17    C6      20.756798   18.547521   25.054956 C.3        1 MOL1        -0.1450
      18    H12     21.818433   18.730012   25.268422 H          1 MOL1         0.0960
      19    H13     20.649485   17.465379   24.901951 H          1 MOL1         0.0960
      20    C7      19.931706   18.977493   26.283267 C.3        1 MOL1         0.0172
      21    H14     20.317060   18.472845   27.173428 H          1 MOL1         0.0934
      22    H15     20.029884   20.056001   26.433538 H          1 MOL1         0.0934
      23    N1      18.455414   18.650058   26.172555 N.4        1 MOL1        -0.5956
      24    H16     18.020018   19.124123   25.375376 H          1 MOL1         0.3624
      25    H17     17.938494   18.936355   27.011115 H          1 MOL1         0.3624
      26    H18     18.296656   17.644441   26.051992 H          1 MOL1         0.3624
@<TRIPOS>BOND
    1     1     2    1
    2     1     3    1
    3     1     4    1
    4     1     5    1
    5     5     6    1
    6     5     7    1
    7     5     8    1
    8     8     9    1
    9     8    10    1
   10     8    11    1
   11    11    12    1
   12    11    13    1
   13    11    14    1
   14    14    15    1
   15    14    16    1
   16    14    17    1
   17    17    18    1
   18    17    19    1
   19    17    20    1
   20    20    21    1
   21    20    22    1
   22    20    23    1
   23    23    24    1
   24    23    25    1
   25    23    26    1
@<TRIPOS>SUBSTRUCTURE
       1 MOL1            1 RESIDUE      1      MOL     
@<SCITEGIC>MOL_PROPERTY
VM2 Rank
SciTegic.value.IntegerValue
132

@<SCITEGIC>MOL_PROPERTY
Conf_Id
SciTegic.value.IntegerValue
817

@<SCITEGIC>MOL_PROPERTY
Probability
SciTegic.value.DoubleValue
0.01

@<SCITEGIC>MOL_PROPERTY
Sum Probability
SciTegic.value.DoubleValue
99.61

@<SCITEGIC>MOL_PROPERTY
Delta G
SciTegic.value.DoubleValue
3.699

@<SCITEGIC>MOL_PROPERTY
G
SciTegic.value.DoubleValue
51.961

@<SCITEGIC>MOL_PROPERTY
E
SciTegic.value.DoubleValue
19.144

@<SCITEGIC>MOL_PROPERTY
-TS
SciTegic.value.DoubleValue
32.816

@<SCITEGIC>MOL_PROPERTY
U+W
SciTegic.value.DoubleValue
-2.318

@<SCITEGIC>MOL_PROPERTY
U
SciTegic.value.DoubleValue
51.663

@<SCITEGIC>MOL_PROPERTY
W
SciTegic.value.DoubleValue
-53.981

@<SCITEGIC>MOL_PROPERTY
W(PB)
SciTegic.value.DoubleValue
-56.239

@<SCITEGIC>MOL_PROPERTY
W(SA)
SciTegic.value.DoubleValue
2.258

@<SCITEGIC>MOL_PROPERTY
Valence
SciTegic.value.DoubleValue
5.225

@<SCITEGIC>MOL_PROPERTY
Coulomb
SciTegic.value.DoubleValue
45.676

@<SCITEGIC>MOL_PROPERTY
VdW
SciTegic.value.DoubleValue
0.762

@<SCITEGIC>MOL_PROPERTY
VdW6
SciTegic.value.DoubleValue
-7.909

@<SCITEGIC>MOL_PROPERTY
VdW12
SciTegic.value.DoubleValue
8.671

@<SCITEGIC>MOL_PROPERTY
Bond
SciTegic.value.DoubleValue
0.235

@<SCITEGIC>MOL_PROPERTY
Angle
SciTegic.value.DoubleValue
1.177

@<SCITEGIC>MOL_PROPERTY
Pdih
SciTegic.value.DoubleValue
3.813

@<SCITEGIC>MOL_PROPERTY
Idih
SciTegic.value.DoubleValue
0.000

@<SCITEGIC>MOL_PROPERTY
Tether
SciTegic.value.DoubleValue
0.000

@<TRIPOS>MOLECULE
guest-s14_vm2.mol2 : vm2 ligand conformer 133
          26          25           1
SMALL
USER_CHARGES
 
@<TRIPOS>ATOM
       1    C1      19.769195   20.179644   20.182977 C.3        1 MOL1        -0.2400
       2    H1      19.004905   19.782757   19.502260 H          1 MOL1         0.0971
       3    H2      19.257025   20.617585   21.046548 H          1 MOL1         0.0971
       4    H3      20.291061   20.991443   19.659968 H          1 MOL1         0.0971
       5    C2      20.767854   19.073524   20.596455 C.3        1 MOL1        -0.1385
       6    H4      21.564873   19.494093   21.225310 H          1 MOL1         0.0960
       7    H5      21.262862   18.707978   19.685822 H          1 MOL1         0.0960
       8    C3      20.096946   17.870940   21.309094 C.3        1 MOL1        -0.1409
       9    H6      19.068882   17.738091   20.944982 H          1 MOL1         0.0960
      10    H7      20.634109   16.958188   21.016261 H          1 MOL1         0.0960
      11    C4      20.110307   17.941626   22.857963 C.3        1 MOL1        -0.1409
      12    H8      21.151343   17.972573   23.206601 H          1 MOL1         0.0960
      13    H9      19.683982   17.006908   23.247589 H          1 MOL1         0.0960
      14    C5      19.323540   19.137440   23.447782 C.3        1 MOL1        -0.1409
      15    H10     19.831811   20.077462   23.196350 H          1 MOL1         0.0960
      16    H11     18.327426   19.180069   22.986267 H          1 MOL1         0.0960
      17    C6      19.157644   19.052716   24.983225 C.3        1 MOL1        -0.1450
      18    H12     18.617855   18.133242   25.246218 H          1 MOL1         0.0960
      19    H13     18.534074   19.890920   25.321577 H          1 MOL1         0.0960
      20    C7      20.504882   19.093282   25.728497 C.3        1 MOL1         0.0172
      21    H14     21.118821   18.239819   25.429344 H          1 MOL1         0.0934
      22    H15     21.040697   20.010642   25.470176 H          1 MOL1         0.0934
      23    N1      20.350631   19.049829   27.235007 N.4        1 MOL1        -0.5956
      24    H16     21.258408   19.077704   27.712010 H          1 MOL1         0.3624
      25    H17     19.876126   18.195835   27.546010 H          1 MOL1         0.3624
      26    H18     19.804623   19.843371   27.586228 H          1 MOL1         0.3624
@<TRIPOS>BOND
    1     1     2    1
    2     1     3    1
    3     1     4    1
    4     1     5    1
    5     5     6    1
    6     5     7    1
    7     5     8    1
    8     8     9    1
    9     8    10    1
   10     8    11    1
   11    11    12    1
   12    11    13    1
   13    11    14    1
   14    14    15    1
   15    14    16    1
   16    14    17    1
   17    17    18    1
   18    17    19    1
   19    17    20    1
   20    20    21    1
   21    20    22    1
   22    20    23    1
   23    23    24    1
   24    23    25    1
   25    23    26    1
@<TRIPOS>SUBSTRUCTURE
       1 MOL1            1 RESIDUE      1      MOL     
@<SCITEGIC>MOL_PROPERTY
VM2 Rank
SciTegic.value.IntegerValue
133

@<SCITEGIC>MOL_PROPERTY
Conf_Id
SciTegic.value.IntegerValue
1592

@<SCITEGIC>MOL_PROPERTY
Probability
SciTegic.value.DoubleValue
0.01

@<SCITEGIC>MOL_PROPERTY
Sum Probability
SciTegic.value.DoubleValue
99.62

@<SCITEGIC>MOL_PROPERTY
Delta G
SciTegic.value.DoubleValue
3.715

@<SCITEGIC>MOL_PROPERTY
G
SciTegic.value.DoubleValue
51.976

@<SCITEGIC>MOL_PROPERTY
E
SciTegic.value.DoubleValue
19.186

@<SCITEGIC>MOL_PROPERTY
-TS
SciTegic.value.DoubleValue
32.790

@<SCITEGIC>MOL_PROPERTY
U+W
SciTegic.value.DoubleValue
-2.276

@<SCITEGIC>MOL_PROPERTY
U
SciTegic.value.DoubleValue
51.296

@<SCITEGIC>MOL_PROPERTY
W
SciTegic.value.DoubleValue
-53.572

@<SCITEGIC>MOL_PROPERTY
W(PB)
SciTegic.value.DoubleValue
-55.840

@<SCITEGIC>MOL_PROPERTY
W(SA)
SciTegic.value.DoubleValue
2.268

@<SCITEGIC>MOL_PROPERTY
Valence
SciTegic.value.DoubleValue
5.428

@<SCITEGIC>MOL_PROPERTY
Coulomb
SciTegic.value.DoubleValue
45.118

@<SCITEGIC>MOL_PROPERTY
VdW
SciTegic.value.DoubleValue
0.751

@<SCITEGIC>MOL_PROPERTY
VdW6
SciTegic.value.DoubleValue
-7.913

@<SCITEGIC>MOL_PROPERTY
VdW12
SciTegic.value.DoubleValue
8.664

@<SCITEGIC>MOL_PROPERTY
Bond
SciTegic.value.DoubleValue
0.235

@<SCITEGIC>MOL_PROPERTY
Angle
SciTegic.value.DoubleValue
1.292

@<SCITEGIC>MOL_PROPERTY
Pdih
SciTegic.value.DoubleValue
3.901

@<SCITEGIC>MOL_PROPERTY
Idih
SciTegic.value.DoubleValue
0.000

@<SCITEGIC>MOL_PROPERTY
Tether
SciTegic.value.DoubleValue
0.000

@<TRIPOS>MOLECULE
guest-s14_vm2.mol2 : vm2 ligand conformer 134
          26          25           1
SMALL
USER_CHARGES
 
@<TRIPOS>ATOM
       1    C1      20.665811   20.003662   19.819466 C.3        1 MOL1        -0.2400
       2    H1      20.195974   20.946569   20.128298 H          1 MOL1         0.0971
       3    H2      21.680151   20.232083   19.467381 H          1 MOL1         0.0971
       4    H3      20.097615   19.600254   18.971146 H          1 MOL1         0.0971
       5    C2      20.708374   18.996659   20.988230 C.3        1 MOL1        -0.1385
       6    H4      21.318543   19.412462   21.799067 H          1 MOL1         0.0960
       7    H5      21.214410   18.079132   20.656810 H          1 MOL1         0.0960
       8    C3      19.287272   18.649702   21.494124 C.3        1 MOL1        -0.1409
       9    H6      18.742381   19.564200   21.765931 H          1 MOL1         0.0960
      10    H7      18.728769   18.201533   20.660657 H          1 MOL1         0.0960
      11    C4      19.281948   17.651899   22.681627 C.3        1 MOL1        -0.1409
      12    H8      20.168367   17.004056   22.639569 H          1 MOL1         0.0960
      13    H9      18.420328   16.980854   22.560094 H          1 MOL1         0.0960
      14    C5      19.167457   18.308059   24.082000 C.3        1 MOL1        -0.1409
      15    H10     18.222078   18.864309   24.147393 H          1 MOL1         0.0960
      16    H11     19.101010   17.504411   24.827057 H          1 MOL1         0.0960
      17    C6      20.341950   19.249819   24.443269 C.3        1 MOL1        -0.1450
      18    H12     20.349071   20.105035   23.756275 H          1 MOL1         0.0960
      19    H13     21.299201   18.727371   24.315405 H          1 MOL1         0.0960
      20    C7      20.243360   19.800176   25.879255 C.3        1 MOL1         0.0172
      21    H14     21.033982   20.538443   26.038720 H          1 MOL1         0.0934
      22    H15     19.279680   20.297738   26.017671 H          1 MOL1         0.0934
      23    N1      20.384829   18.739024   26.953027 N.4        1 MOL1        -0.5956
      24    H16     20.329398   19.141143   27.895114 H          1 MOL1         0.3624
      25    H17     21.283471   18.249838   26.888837 H          1 MOL1         0.3624
      26    H18     19.648311   18.029887   26.886150 H          1 MOL1         0.3624
@<TRIPOS>BOND
    1     1     2    1
    2     1     3    1
    3     1     4    1
    4     1     5    1
    5     5     6    1
    6     5     7    1
    7     5     8    1
    8     8     9    1
    9     8    10    1
   10     8    11    1
   11    11    12    1
   12    11    13    1
   13    11    14    1
   14    14    15    1
   15    14    16    1
   16    14    17    1
   17    17    18    1
   18    17    19    1
   19    17    20    1
   20    20    21    1
   21    20    22    1
   22    20    23    1
   23    23    24    1
   24    23    25    1
   25    23    26    1
@<TRIPOS>SUBSTRUCTURE
       1 MOL1            1 RESIDUE      1      MOL     
@<SCITEGIC>MOL_PROPERTY
VM2 Rank
SciTegic.value.IntegerValue
134

@<SCITEGIC>MOL_PROPERTY
Conf_Id
SciTegic.value.IntegerValue
1500

@<SCITEGIC>MOL_PROPERTY
Probability
SciTegic.value.DoubleValue
0.01

@<SCITEGIC>MOL_PROPERTY
Sum Probability
SciTegic.value.DoubleValue
99.64

@<SCITEGIC>MOL_PROPERTY
Delta G
SciTegic.value.DoubleValue
3.725

@<SCITEGIC>MOL_PROPERTY
G
SciTegic.value.DoubleValue
51.987

@<SCITEGIC>MOL_PROPERTY
E
SciTegic.value.DoubleValue
19.161

@<SCITEGIC>MOL_PROPERTY
-TS
SciTegic.value.DoubleValue
32.825

@<SCITEGIC>MOL_PROPERTY
U+W
SciTegic.value.DoubleValue
-2.301

@<SCITEGIC>MOL_PROPERTY
U
SciTegic.value.DoubleValue
51.407

@<SCITEGIC>MOL_PROPERTY
W
SciTegic.value.DoubleValue
-53.708

@<SCITEGIC>MOL_PROPERTY
W(PB)
SciTegic.value.DoubleValue
-55.988

@<SCITEGIC>MOL_PROPERTY
W(SA)
SciTegic.value.DoubleValue
2.280

@<SCITEGIC>MOL_PROPERTY
Valence
SciTegic.value.DoubleValue
5.338

@<SCITEGIC>MOL_PROPERTY
Coulomb
SciTegic.value.DoubleValue
45.268

@<SCITEGIC>MOL_PROPERTY
VdW
SciTegic.value.DoubleValue
0.801

@<SCITEGIC>MOL_PROPERTY
VdW6
SciTegic.value.DoubleValue
-7.902

@<SCITEGIC>MOL_PROPERTY
VdW12
SciTegic.value.DoubleValue
8.703

@<SCITEGIC>MOL_PROPERTY
Bond
SciTegic.value.DoubleValue
0.239

@<SCITEGIC>MOL_PROPERTY
Angle
SciTegic.value.DoubleValue
1.230

@<SCITEGIC>MOL_PROPERTY
Pdih
SciTegic.value.DoubleValue
3.869

@<SCITEGIC>MOL_PROPERTY
Idih
SciTegic.value.DoubleValue
0.000

@<SCITEGIC>MOL_PROPERTY
Tether
SciTegic.value.DoubleValue
0.000

@<TRIPOS>MOLECULE
guest-s14_vm2.mol2 : vm2 ligand conformer 135
          26          25           1
SMALL
USER_CHARGES
 
@<TRIPOS>ATOM
       1    C1      20.340604   20.086589   19.771379 C.3        1 MOL1        -0.2400
       2    H1      19.330372   20.479709   19.597801 H          1 MOL1         0.0971
       3    H2      21.049007   20.918229   19.663881 H          1 MOL1         0.0971
       4    H3      20.561636   19.352514   18.985570 H          1 MOL1         0.0971
       5    C2      20.454931   19.451181   21.173304 C.3        1 MOL1        -0.1385
       6    H4      20.264505   20.224886   21.928734 H          1 MOL1         0.0960
       7    H5      21.481763   19.091580   21.327626 H          1 MOL1         0.0960
       8    C3      19.458404   18.283284   21.352972 C.3        1 MOL1        -0.1409
       9    H6      18.431080   18.665741   21.278284 H          1 MOL1         0.0960
      10    H7      19.582393   17.577732   20.519821 H          1 MOL1         0.0960
      11    C4      19.620843   17.499730   22.681218 C.3        1 MOL1        -0.1409
      12    H8      20.610377   17.023813   22.720768 H          1 MOL1         0.0960
      13    H9      18.896483   16.673547   22.667262 H          1 MOL1         0.0960
      14    C5      19.373646   18.337174   23.963132 C.3        1 MOL1        -0.1409
      15    H10     18.679290   19.161005   23.747329 H          1 MOL1         0.0960
      16    H11     18.867182   17.697042   24.697832 H          1 MOL1         0.0960
      17    C6      20.676948   18.882114   24.601098 C.3        1 MOL1        -0.1450
      18    H12     21.248777   19.458038   23.864862 H          1 MOL1         0.0960
      19    H13     21.320950   18.046131   24.904803 H          1 MOL1         0.0960
      20    C7      20.407752   19.787939   25.818170 C.3        1 MOL1         0.0172
      21    H14     21.353570   20.201684   26.178450 H          1 MOL1         0.0934
      22    H15     19.762640   20.619592   25.522226 H          1 MOL1         0.0934
      23    N1      19.747872   19.070989   26.979726 N.4        1 MOL1        -0.5956
      24    H16     19.594593   19.698264   27.776792 H          1 MOL1         0.3624
      25    H17     20.318726   18.289921   27.318907 H          1 MOL1         0.3624
      26    H18     18.833835   18.687926   26.719462 H          1 MOL1         0.3624
@<TRIPOS>BOND
    1     1     2    1
    2     1     3    1
    3     1     4    1
    4     1     5    1
    5     5     6    1
    6     5     7    1
    7     5     8    1
    8     8     9    1
    9     8    10    1
   10     8    11    1
   11    11    12    1
   12    11    13    1
   13    11    14    1
   14    14    15    1
   15    14    16    1
   16    14    17    1
   17    17    18    1
   18    17    19    1
   19    17    20    1
   20    20    21    1
   21    20    22    1
   22    20    23    1
   23    23    24    1
   24    23    25    1
   25    23    26    1
@<TRIPOS>SUBSTRUCTURE
       1 MOL1            1 RESIDUE      1      MOL     
@<SCITEGIC>MOL_PROPERTY
VM2 Rank
SciTegic.value.IntegerValue
135

@<SCITEGIC>MOL_PROPERTY
Conf_Id
SciTegic.value.IntegerValue
1043

@<SCITEGIC>MOL_PROPERTY
Probability
SciTegic.value.DoubleValue
0.01

@<SCITEGIC>MOL_PROPERTY
Sum Probability
SciTegic.value.DoubleValue
99.65

@<SCITEGIC>MOL_PROPERTY
Delta G
SciTegic.value.DoubleValue
3.728

@<SCITEGIC>MOL_PROPERTY
G
SciTegic.value.DoubleValue
51.989

@<SCITEGIC>MOL_PROPERTY
E
SciTegic.value.DoubleValue
19.144

@<SCITEGIC>MOL_PROPERTY
-TS
SciTegic.value.DoubleValue
32.845

@<SCITEGIC>MOL_PROPERTY
U+W
SciTegic.value.DoubleValue
-2.317

@<SCITEGIC>MOL_PROPERTY
U
SciTegic.value.DoubleValue
51.425

@<SCITEGIC>MOL_PROPERTY
W
SciTegic.value.DoubleValue
-53.743

@<SCITEGIC>MOL_PROPERTY
W(PB)
SciTegic.value.DoubleValue
-56.025

@<SCITEGIC>MOL_PROPERTY
W(SA)
SciTegic.value.DoubleValue
2.282

@<SCITEGIC>MOL_PROPERTY
Valence
SciTegic.value.DoubleValue
5.322

@<SCITEGIC>MOL_PROPERTY
Coulomb
SciTegic.value.DoubleValue
45.311

@<SCITEGIC>MOL_PROPERTY
VdW
SciTegic.value.DoubleValue
0.792

@<SCITEGIC>MOL_PROPERTY
VdW6
SciTegic.value.DoubleValue
-7.911

@<SCITEGIC>MOL_PROPERTY
VdW12
SciTegic.value.DoubleValue
8.703

@<SCITEGIC>MOL_PROPERTY
Bond
SciTegic.value.DoubleValue
0.240

@<SCITEGIC>MOL_PROPERTY
Angle
SciTegic.value.DoubleValue
1.176

@<SCITEGIC>MOL_PROPERTY
Pdih
SciTegic.value.DoubleValue
3.905

@<SCITEGIC>MOL_PROPERTY
Idih
SciTegic.value.DoubleValue
0.000

@<SCITEGIC>MOL_PROPERTY
Tether
SciTegic.value.DoubleValue
0.000

@<TRIPOS>MOLECULE
guest-s14_vm2.mol2 : vm2 ligand conformer 136
          26          25           1
SMALL
USER_CHARGES
 
@<TRIPOS>ATOM
       1    C1      18.454971   19.119007   20.749857 C.3        1 MOL1        -0.2400
       2    H1      18.456010   20.074796   20.209931 H          1 MOL1         0.0971
       3    H2      17.657826   18.496771   20.322912 H          1 MOL1         0.0971
       4    H3      18.193862   19.322649   21.794015 H          1 MOL1         0.0971
       5    C2      19.823301   18.410237   20.618307 C.3        1 MOL1        -0.1385
       6    H4      20.005012   18.221507   19.550940 H          1 MOL1         0.0960
       7    H5      19.789872   17.422164   21.098062 H          1 MOL1         0.0960
       8    C3      21.004342   19.242870   21.180436 C.3        1 MOL1        -0.1409
       9    H6      21.882769   19.061525   20.545707 H          1 MOL1         0.0960
      10    H7      20.790171   20.316562   21.088358 H          1 MOL1         0.0960
      11    C4      21.405735   18.902541   22.639052 C.3        1 MOL1        -0.1409
      12    H8      22.289157   19.501491   22.900016 H          1 MOL1         0.0960
      13    H9      21.721875   17.851705   22.694470 H          1 MOL1         0.0960
      14    C5      20.295162   19.160614   23.683536 C.3        1 MOL1        -0.1409
      15    H10     19.910835   20.183397   23.567238 H          1 MOL1         0.0960
      16    H11     19.459023   18.474696   23.500443 H          1 MOL1         0.0960
      17    C6      20.810540   18.964494   25.129005 C.3        1 MOL1        -0.1450
      18    H12     21.668819   19.627135   25.302718 H          1 MOL1         0.0960
      19    H13     21.175522   17.937373   25.262415 H          1 MOL1         0.0960
      20    C7      19.736644   19.271277   26.190644 C.3        1 MOL1         0.0172
      21    H14     20.181596   19.201169   27.186967 H          1 MOL1         0.0934
      22    H15     19.364842   20.290393   26.054379 H          1 MOL1         0.0934
      23    N1      18.550306   18.327960   26.150162 N.4        1 MOL1        -0.5956
      24    H16     17.861945   18.551176   26.877273 H          1 MOL1         0.3624
      25    H17     18.833881   17.353565   26.295723 H          1 MOL1         0.3624
      26    H18     18.061391   18.370795   25.250792 H          1 MOL1         0.3624
@<TRIPOS>BOND
    1     1     2    1
    2     1     3    1
    3     1     4    1
    4     1     5    1
    5     5     6    1
    6     5     7    1
    7     5     8    1
    8     8     9    1
    9     8    10    1
   10     8    11    1
   11    11    12    1
   12    11    13    1
   13    11    14    1
   14    14    15    1
   15    14    16    1
   16    14    17    1
   17    17    18    1
   18    17    19    1
   19    17    20    1
   20    20    21    1
   21    20    22    1
   22    20    23    1
   23    23    24    1
   24    23    25    1
   25    23    26    1
@<TRIPOS>SUBSTRUCTURE
       1 MOL1            1 RESIDUE      1      MOL     
@<SCITEGIC>MOL_PROPERTY
VM2 Rank
SciTegic.value.IntegerValue
136

@<SCITEGIC>MOL_PROPERTY
Conf_Id
SciTegic.value.IntegerValue
445

@<SCITEGIC>MOL_PROPERTY
Probability
SciTegic.value.DoubleValue
0.01

@<SCITEGIC>MOL_PROPERTY
Sum Probability
SciTegic.value.DoubleValue
99.67

@<SCITEGIC>MOL_PROPERTY
Delta G
SciTegic.value.DoubleValue
3.733

@<SCITEGIC>MOL_PROPERTY
G
SciTegic.value.DoubleValue
51.994

@<SCITEGIC>MOL_PROPERTY
E
SciTegic.value.DoubleValue
19.192

@<SCITEGIC>MOL_PROPERTY
-TS
SciTegic.value.DoubleValue
32.803

@<SCITEGIC>MOL_PROPERTY
U+W
SciTegic.value.DoubleValue
-2.270

@<SCITEGIC>MOL_PROPERTY
U
SciTegic.value.DoubleValue
51.677

@<SCITEGIC>MOL_PROPERTY
W
SciTegic.value.DoubleValue
-53.947

@<SCITEGIC>MOL_PROPERTY
W(PB)
SciTegic.value.DoubleValue
-56.190

@<SCITEGIC>MOL_PROPERTY
W(SA)
SciTegic.value.DoubleValue
2.243

@<SCITEGIC>MOL_PROPERTY
Valence
SciTegic.value.DoubleValue
5.252

@<SCITEGIC>MOL_PROPERTY
Coulomb
SciTegic.value.DoubleValue
45.638

@<SCITEGIC>MOL_PROPERTY
VdW
SciTegic.value.DoubleValue
0.787

@<SCITEGIC>MOL_PROPERTY
VdW6
SciTegic.value.DoubleValue
-7.893

@<SCITEGIC>MOL_PROPERTY
VdW12
SciTegic.value.DoubleValue
8.680

@<SCITEGIC>MOL_PROPERTY
Bond
SciTegic.value.DoubleValue
0.235

@<SCITEGIC>MOL_PROPERTY
Angle
SciTegic.value.DoubleValue
1.222

@<SCITEGIC>MOL_PROPERTY
Pdih
SciTegic.value.DoubleValue
3.795

@<SCITEGIC>MOL_PROPERTY
Idih
SciTegic.value.DoubleValue
0.000

@<SCITEGIC>MOL_PROPERTY
Tether
SciTegic.value.DoubleValue
0.000

@<TRIPOS>MOLECULE
guest-s14_vm2.mol2 : vm2 ligand conformer 137
          26          25           1
SMALL
USER_CHARGES
 
@<TRIPOS>ATOM
       1    C1      18.923589   18.854302   19.761102 C.3        1 MOL1        -0.2400
       2    H1      19.556898   19.242771   18.952868 H          1 MOL1         0.0971
       3    H2      18.331714   18.023492   19.355558 H          1 MOL1         0.0971
       4    H3      18.227804   19.648355   20.062034 H          1 MOL1         0.0971
       5    C2      19.777178   18.382542   20.957222 C.3        1 MOL1        -0.1385
       6    H4      20.436607   17.566060   20.631221 H          1 MOL1         0.0960
       7    H5      19.117767   17.961387   21.725635 H          1 MOL1         0.0960
       8    C3      20.630365   19.535573   21.538971 C.3        1 MOL1        -0.1409
       9    H6      21.300126   19.897329   20.746505 H          1 MOL1         0.0960
      10    H7      19.991731   20.388287   21.807519 H          1 MOL1         0.0960
      11    C4      21.493666   19.110807   22.755560 C.3        1 MOL1        -0.1409
      12    H8      22.453963   19.641480   22.694910 H          1 MOL1         0.0960
      13    H9      21.742698   18.042545   22.692268 H          1 MOL1         0.0960
      14    C5      20.870709   19.431679   24.138911 C.3        1 MOL1        -0.1409
      15    H10     21.600300   19.153152   24.910594 H          1 MOL1         0.0960
      16    H11     20.727852   20.517281   24.231064 H          1 MOL1         0.0960
      17    C6      19.527778   18.712950   24.416080 C.3        1 MOL1        -0.1450
      18    H12     19.637789   17.631699   24.259793 H          1 MOL1         0.0960
      19    H13     18.771366   19.064653   23.703654 H          1 MOL1         0.0960
      20    C7      18.994231   18.976215   25.837589 C.3        1 MOL1         0.0172
      21    H14     18.909125   20.053236   26.005478 H          1 MOL1         0.0934
      22    H15     17.998295   18.536096   25.937374 H          1 MOL1         0.0934
      23    N1      19.863484   18.394931   26.935565 N.4        1 MOL1        -0.5956
      24    H16     19.472097   18.575324   27.866464 H          1 MOL1         0.3624
      25    H17     20.807118   18.793987   26.924826 H          1 MOL1         0.3624
      26    H18     19.962991   17.378665   26.844555 H          1 MOL1         0.3624
@<TRIPOS>BOND
    1     1     2    1
    2     1     3    1
    3     1     4    1
    4     1     5    1
    5     5     6    1
    6     5     7    1
    7     5     8    1
    8     8     9    1
    9     8    10    1
   10     8    11    1
   11    11    12    1
   12    11    13    1
   13    11    14    1
   14    14    15    1
   15    14    16    1
   16    14    17    1
   17    17    18    1
   18    17    19    1
   19    17    20    1
   20    20    21    1
   21    20    22    1
   22    20    23    1
   23    23    24    1
   24    23    25    1
   25    23    26    1
@<TRIPOS>SUBSTRUCTURE
       1 MOL1            1 RESIDUE      1      MOL     
@<SCITEGIC>MOL_PROPERTY
VM2 Rank
SciTegic.value.IntegerValue
137

@<SCITEGIC>MOL_PROPERTY
Conf_Id
SciTegic.value.IntegerValue
991

@<SCITEGIC>MOL_PROPERTY
Probability
SciTegic.value.DoubleValue
0.01

@<SCITEGIC>MOL_PROPERTY
Sum Probability
SciTegic.value.DoubleValue
99.68

@<SCITEGIC>MOL_PROPERTY
Delta G
SciTegic.value.DoubleValue
3.745

@<SCITEGIC>MOL_PROPERTY
G
SciTegic.value.DoubleValue
52.006

@<SCITEGIC>MOL_PROPERTY
E
SciTegic.value.DoubleValue
19.181

@<SCITEGIC>MOL_PROPERTY
-TS
SciTegic.value.DoubleValue
32.825

@<SCITEGIC>MOL_PROPERTY
U+W
SciTegic.value.DoubleValue
-2.281

@<SCITEGIC>MOL_PROPERTY
U
SciTegic.value.DoubleValue
51.407

@<SCITEGIC>MOL_PROPERTY
W
SciTegic.value.DoubleValue
-53.688

@<SCITEGIC>MOL_PROPERTY
W(PB)
SciTegic.value.DoubleValue
-55.961

@<SCITEGIC>MOL_PROPERTY
W(SA)
SciTegic.value.DoubleValue
2.273

@<SCITEGIC>MOL_PROPERTY
Valence
SciTegic.value.DoubleValue
5.338

@<SCITEGIC>MOL_PROPERTY
Coulomb
SciTegic.value.DoubleValue
45.268

@<SCITEGIC>MOL_PROPERTY
VdW
SciTegic.value.DoubleValue
0.801

@<SCITEGIC>MOL_PROPERTY
VdW6
SciTegic.value.DoubleValue
-7.902

@<SCITEGIC>MOL_PROPERTY
VdW12
SciTegic.value.DoubleValue
8.703

@<SCITEGIC>MOL_PROPERTY
Bond
SciTegic.value.DoubleValue
0.239

@<SCITEGIC>MOL_PROPERTY
Angle
SciTegic.value.DoubleValue
1.230

@<SCITEGIC>MOL_PROPERTY
Pdih
SciTegic.value.DoubleValue
3.868

@<SCITEGIC>MOL_PROPERTY
Idih
SciTegic.value.DoubleValue
0.000

@<SCITEGIC>MOL_PROPERTY
Tether
SciTegic.value.DoubleValue
0.000

@<TRIPOS>MOLECULE
guest-s14_vm2.mol2 : vm2 ligand conformer 138
          26          25           1
SMALL
USER_CHARGES
 
@<TRIPOS>ATOM
       1    C1      21.061310   20.191730   21.010192 C.3        1 MOL1        -0.2400
       2    H1      20.395490   20.986294   21.370966 H          1 MOL1         0.0971
       3    H2      21.645261   19.811567   21.857366 H          1 MOL1         0.0971
       4    H3      21.768193   20.641988   20.301351 H          1 MOL1         0.0971
       5    C2      20.261044   19.060561   20.328452 C.3        1 MOL1        -0.1385
       6    H4      20.947504   18.253240   20.037368 H          1 MOL1         0.0960
       7    H5      19.832295   19.446897   19.393211 H          1 MOL1         0.0960
       8    C3      19.112451   18.479503   21.192196 C.3        1 MOL1        -0.1409
       9    H6      18.365790   19.258001   21.400838 H          1 MOL1         0.0960
      10    H7      18.591978   17.725782   20.585228 H          1 MOL1         0.0960
      11    C4      19.570405   17.804550   22.511438 C.3        1 MOL1        -0.1409
      12    H8      20.584925   17.399350   22.394297 H          1 MOL1         0.0960
      13    H9      18.918903   16.940896   22.703936 H          1 MOL1         0.0960
      14    C5      19.501803   18.744183   23.740171 C.3        1 MOL1        -0.1409
      15    H10     20.107445   19.639974   23.564014 H          1 MOL1         0.0960
      16    H11     18.467037   19.087192   23.878122 H          1 MOL1         0.0960
      17    C6      19.982316   18.036192   25.028959 C.3        1 MOL1        -0.1450
      18    H12     21.025781   17.713727   24.914250 H          1 MOL1         0.0960
      19    H13     19.388666   17.125956   25.187045 H          1 MOL1         0.0960
      20    C7      19.853610   18.925582   26.280688 C.3        1 MOL1         0.0172
      21    H14     18.817170   19.254999   26.393279 H          1 MOL1         0.0934
      22    H15     20.125075   18.345510   27.166903 H          1 MOL1         0.0934
      23    N1      20.738060   20.156699   26.248905 N.4        1 MOL1        -0.5956
      24    H16     20.638762   20.718350   27.101574 H          1 MOL1         0.3624
      25    H17     20.509906   20.767916   25.458867 H          1 MOL1         0.3624
      26    H18     21.729875   19.910717   26.166460 H          1 MOL1         0.3624
@<TRIPOS>BOND
    1     1     2    1
    2     1     3    1
    3     1     4    1
    4     1     5    1
    5     5     6    1
    6     5     7    1
    7     5     8    1
    8     8     9    1
    9     8    10    1
   10     8    11    1
   11    11    12    1
   12    11    13    1
   13    11    14    1
   14    14    15    1
   15    14    16    1
   16    14    17    1
   17    17    18    1
   18    17    19    1
   19    17    20    1
   20    20    21    1
   21    20    22    1
   22    20    23    1
   23    23    24    1
   24    23    25    1
   25    23    26    1
@<TRIPOS>SUBSTRUCTURE
       1 MOL1            1 RESIDUE      1      MOL     
@<SCITEGIC>MOL_PROPERTY
VM2 Rank
SciTegic.value.IntegerValue
138

@<SCITEGIC>MOL_PROPERTY
Conf_Id
SciTegic.value.IntegerValue
1328

@<SCITEGIC>MOL_PROPERTY
Probability
SciTegic.value.DoubleValue
0.01

@<SCITEGIC>MOL_PROPERTY
Sum Probability
SciTegic.value.DoubleValue
99.69

@<SCITEGIC>MOL_PROPERTY
Delta G
SciTegic.value.DoubleValue
3.749

@<SCITEGIC>MOL_PROPERTY
G
SciTegic.value.DoubleValue
52.010

@<SCITEGIC>MOL_PROPERTY
E
SciTegic.value.DoubleValue
19.193

@<SCITEGIC>MOL_PROPERTY
-TS
SciTegic.value.DoubleValue
32.817

@<SCITEGIC>MOL_PROPERTY
U+W
SciTegic.value.DoubleValue
-2.269

@<SCITEGIC>MOL_PROPERTY
U
SciTegic.value.DoubleValue
51.663

@<SCITEGIC>MOL_PROPERTY
W
SciTegic.value.DoubleValue
-53.932

@<SCITEGIC>MOL_PROPERTY
W(PB)
SciTegic.value.DoubleValue
-56.204

@<SCITEGIC>MOL_PROPERTY
W(SA)
SciTegic.value.DoubleValue
2.272

@<SCITEGIC>MOL_PROPERTY
Valence
SciTegic.value.DoubleValue
5.225

@<SCITEGIC>MOL_PROPERTY
Coulomb
SciTegic.value.DoubleValue
45.676

@<SCITEGIC>MOL_PROPERTY
VdW
SciTegic.value.DoubleValue
0.761

@<SCITEGIC>MOL_PROPERTY
VdW6
SciTegic.value.DoubleValue
-7.910

@<SCITEGIC>MOL_PROPERTY
VdW12
SciTegic.value.DoubleValue
8.671

@<SCITEGIC>MOL_PROPERTY
Bond
SciTegic.value.DoubleValue
0.235

@<SCITEGIC>MOL_PROPERTY
Angle
SciTegic.value.DoubleValue
1.177

@<SCITEGIC>MOL_PROPERTY
Pdih
SciTegic.value.DoubleValue
3.813

@<SCITEGIC>MOL_PROPERTY
Idih
SciTegic.value.DoubleValue
0.000

@<SCITEGIC>MOL_PROPERTY
Tether
SciTegic.value.DoubleValue
0.000

@<TRIPOS>MOLECULE
guest-s14_vm2.mol2 : vm2 ligand conformer 139
          26          25           1
SMALL
USER_CHARGES
 
@<TRIPOS>ATOM
       1    C1      18.634880   19.393220   20.772370 C.3        1 MOL1        -0.2400
       2    H1      18.926767   20.450891   20.741064 H          1 MOL1         0.0971
       3    H2      17.814476   19.249792   20.057367 H          1 MOL1         0.0971
       4    H3      18.241437   19.167483   21.771084 H          1 MOL1         0.0971
       5    C2      19.825362   18.475621   20.418309 C.3        1 MOL1        -0.1385
       6    H4      20.073510   18.614388   19.356743 H          1 MOL1         0.0960
       7    H5      19.519518   17.425396   20.524155 H          1 MOL1         0.0960
       8    C3      21.102310   18.732119   21.258859 C.3        1 MOL1        -0.1409
       9    H6      21.884084   18.055923   20.886052 H          1 MOL1         0.0960
      10    H7      21.477764   19.748008   21.074381 H          1 MOL1         0.0960
      11    C4      20.936847   18.486027   22.781286 C.3        1 MOL1        -0.1409
      12    H8      21.877657   18.072153   23.169750 H          1 MOL1         0.0960
      13    H9      20.173437   17.715201   22.950189 H          1 MOL1         0.0960
      14    C5      20.611155   19.774194   23.580681 C.3        1 MOL1        -0.1409
      15    H10     21.404339   20.513961   23.405319 H          1 MOL1         0.0960
      16    H11     19.682594   20.230977   23.218231 H          1 MOL1         0.0960
      17    C6      20.495149   19.527472   25.103055 C.3        1 MOL1        -0.1450
      18    H12     20.369817   20.492570   25.611785 H          1 MOL1         0.0960
      19    H13     21.430431   19.092431   25.479817 H          1 MOL1         0.0960
      20    C7      19.312475   18.610263   25.466785 C.3        1 MOL1         0.0172
      21    H14     18.381626   19.044324   25.091969 H          1 MOL1         0.0934
      22    H15     19.447079   17.630105   25.002318 H          1 MOL1         0.0934
      23    N1      19.162822   18.400084   26.959655 N.4        1 MOL1        -0.5956
      24    H16     19.004363   19.283184   27.455844 H          1 MOL1         0.3624
      25    H17     19.997453   17.968864   27.370291 H          1 MOL1         0.3624
      26    H18     18.370484   17.787159   27.180741 H          1 MOL1         0.3624
@<TRIPOS>BOND
    1     1     2    1
    2     1     3    1
    3     1     4    1
    4     1     5    1
    5     5     6    1
    6     5     7    1
    7     5     8    1
    8     8     9    1
    9     8    10    1
   10     8    11    1
   11    11    12    1
   12    11    13    1
   13    11    14    1
   14    14    15    1
   15    14    16    1
   16    14    17    1
   17    17    18    1
   18    17    19    1
   19    17    20    1
   20    20    21    1
   21    20    22    1
   22    20    23    1
   23    23    24    1
   24    23    25    1
   25    23    26    1
@<TRIPOS>SUBSTRUCTURE
       1 MOL1            1 RESIDUE      1      MOL     
@<SCITEGIC>MOL_PROPERTY
VM2 Rank
SciTegic.value.IntegerValue
139

@<SCITEGIC>MOL_PROPERTY
Conf_Id
SciTegic.value.IntegerValue
1260

@<SCITEGIC>MOL_PROPERTY
Probability
SciTegic.value.DoubleValue
0.01

@<SCITEGIC>MOL_PROPERTY
Sum Probability
SciTegic.value.DoubleValue
99.71

@<SCITEGIC>MOL_PROPERTY
Delta G
SciTegic.value.DoubleValue
3.756

@<SCITEGIC>MOL_PROPERTY
G
SciTegic.value.DoubleValue
52.017

@<SCITEGIC>MOL_PROPERTY
E
SciTegic.value.DoubleValue
19.229

@<SCITEGIC>MOL_PROPERTY
-TS
SciTegic.value.DoubleValue
32.788

@<SCITEGIC>MOL_PROPERTY
U+W
SciTegic.value.DoubleValue
-2.233

@<SCITEGIC>MOL_PROPERTY
U
SciTegic.value.DoubleValue
51.443

@<SCITEGIC>MOL_PROPERTY
W
SciTegic.value.DoubleValue
-53.675

@<SCITEGIC>MOL_PROPERTY
W(PB)
SciTegic.value.DoubleValue
-55.934

@<SCITEGIC>MOL_PROPERTY
W(SA)
SciTegic.value.DoubleValue
2.259

@<SCITEGIC>MOL_PROPERTY
Valence
SciTegic.value.DoubleValue
5.420

@<SCITEGIC>MOL_PROPERTY
Coulomb
SciTegic.value.DoubleValue
45.330

@<SCITEGIC>MOL_PROPERTY
VdW
SciTegic.value.DoubleValue
0.692

@<SCITEGIC>MOL_PROPERTY
VdW6
SciTegic.value.DoubleValue
-8.007

@<SCITEGIC>MOL_PROPERTY
VdW12
SciTegic.value.DoubleValue
8.700

@<SCITEGIC>MOL_PROPERTY
Bond
SciTegic.value.DoubleValue
0.240

@<SCITEGIC>MOL_PROPERTY
Angle
SciTegic.value.DoubleValue
1.285

@<SCITEGIC>MOL_PROPERTY
Pdih
SciTegic.value.DoubleValue
3.895

@<SCITEGIC>MOL_PROPERTY
Idih
SciTegic.value.DoubleValue
0.000

@<SCITEGIC>MOL_PROPERTY
Tether
SciTegic.value.DoubleValue
0.000

@<TRIPOS>MOLECULE
guest-s14_vm2.mol2 : vm2 ligand conformer 140
          26          25           1
SMALL
USER_CHARGES
 
@<TRIPOS>ATOM
       1    C1      19.097026   19.736376   20.160511 C.3        1 MOL1        -0.2400
       2    H1      18.855651   20.352886   21.033160 H          1 MOL1         0.0971
       3    H2      19.793436   20.302831   19.528709 H          1 MOL1         0.0971
       4    H3      18.170850   19.593209   19.589023 H          1 MOL1         0.0971
       5    C2      19.701531   18.370299   20.560758 C.3        1 MOL1        -0.1385
       6    H4      19.885309   17.799533   19.639693 H          1 MOL1         0.0960
       7    H5      18.972955   17.784726   21.138561 H          1 MOL1         0.0960
       8    C3      21.036359   18.490457   21.340487 C.3        1 MOL1        -0.1409
       9    H6      21.677396   17.646217   21.051112 H          1 MOL1         0.0960
      10    H7      21.579067   19.393531   21.028930 H          1 MOL1         0.0960
      11    C4      20.894038   18.458460   22.884149 C.3        1 MOL1        -0.1409
      12    H8      21.901833   18.469528   23.321741 H          1 MOL1         0.0960
      13    H9      20.440540   17.503783   23.182804 H          1 MOL1         0.0960
      14    C5      20.077207   19.634453   23.472943 C.3        1 MOL1        -0.1409
      15    H10     20.450688   20.580334   23.057155 H          1 MOL1         0.0960
      16    H11     19.025909   19.545913   23.169413 H          1 MOL1         0.0960
      17    C6      20.148742   19.706373   25.016313 C.3        1 MOL1        -0.1450
      18    H12     19.607949   20.599187   25.357391 H          1 MOL1         0.0960
      19    H13     21.193003   19.831662   25.332207 H          1 MOL1         0.0960
      20    C7      19.547825   18.462081   25.696582 C.3        1 MOL1         0.0172
      21    H14     18.506839   18.339473   25.385629 H          1 MOL1         0.0934
      22    H15     20.104576   17.570890   25.395553 H          1 MOL1         0.0934
      23    N1      19.578272   18.540501   27.209256 N.4        1 MOL1        -0.5956
      24    H16     19.174024   17.703093   27.642501 H          1 MOL1         0.3624
      25    H17     19.047490   19.344098   27.560952 H          1 MOL1         0.3624
      26    H18     20.534536   18.630141   27.568015 H          1 MOL1         0.3624
@<TRIPOS>BOND
    1     1     2    1
    2     1     3    1
    3     1     4    1
    4     1     5    1
    5     5     6    1
    6     5     7    1
    7     5     8    1
    8     8     9    1
    9     8    10    1
   10     8    11    1
   11    11    12    1
   12    11    13    1
   13    11    14    1
   14    14    15    1
   15    14    16    1
   16    14    17    1
   17    17    18    1
   18    17    19    1
   19    17    20    1
   20    20    21    1
   21    20    22    1
   22    20    23    1
   23    23    24    1
   24    23    25    1
   25    23    26    1
@<TRIPOS>SUBSTRUCTURE
       1 MOL1            1 RESIDUE      1      MOL     
@<SCITEGIC>MOL_PROPERTY
VM2 Rank
SciTegic.value.IntegerValue
140

@<SCITEGIC>MOL_PROPERTY
Conf_Id
SciTegic.value.IntegerValue
1059

@<SCITEGIC>MOL_PROPERTY
Probability
SciTegic.value.DoubleValue
0.01

@<SCITEGIC>MOL_PROPERTY
Sum Probability
SciTegic.value.DoubleValue
99.72

@<SCITEGIC>MOL_PROPERTY
Delta G
SciTegic.value.DoubleValue
3.782

@<SCITEGIC>MOL_PROPERTY
G
SciTegic.value.DoubleValue
52.043

@<SCITEGIC>MOL_PROPERTY
E
SciTegic.value.DoubleValue
19.253

@<SCITEGIC>MOL_PROPERTY
-TS
SciTegic.value.DoubleValue
32.790

@<SCITEGIC>MOL_PROPERTY
U+W
SciTegic.value.DoubleValue
-2.209

@<SCITEGIC>MOL_PROPERTY
U
SciTegic.value.DoubleValue
51.296

@<SCITEGIC>MOL_PROPERTY
W
SciTegic.value.DoubleValue
-53.505

@<SCITEGIC>MOL_PROPERTY
W(PB)
SciTegic.value.DoubleValue
-55.786

@<SCITEGIC>MOL_PROPERTY
W(SA)
SciTegic.value.DoubleValue
2.282

@<SCITEGIC>MOL_PROPERTY
Valence
SciTegic.value.DoubleValue
5.428

@<SCITEGIC>MOL_PROPERTY
Coulomb
SciTegic.value.DoubleValue
45.117

@<SCITEGIC>MOL_PROPERTY
VdW
SciTegic.value.DoubleValue
0.751

@<SCITEGIC>MOL_PROPERTY
VdW6
SciTegic.value.DoubleValue
-7.913

@<SCITEGIC>MOL_PROPERTY
VdW12
SciTegic.value.DoubleValue
8.664

@<SCITEGIC>MOL_PROPERTY
Bond
SciTegic.value.DoubleValue
0.235

@<SCITEGIC>MOL_PROPERTY
Angle
SciTegic.value.DoubleValue
1.292

@<SCITEGIC>MOL_PROPERTY
Pdih
SciTegic.value.DoubleValue
3.901

@<SCITEGIC>MOL_PROPERTY
Idih
SciTegic.value.DoubleValue
0.000

@<SCITEGIC>MOL_PROPERTY
Tether
SciTegic.value.DoubleValue
0.000

@<TRIPOS>MOLECULE
guest-s14_vm2.mol2 : vm2 ligand conformer 141
          26          25           1
SMALL
USER_CHARGES
 
@<TRIPOS>ATOM
       1    C1      19.061171   20.006229   20.021361 C.3        1 MOL1        -0.2400
       2    H1      19.663152   20.924274   20.015641 H          1 MOL1         0.0971
       3    H2      18.821798   19.753852   18.980189 H          1 MOL1         0.0971
       4    H3      18.118189   20.218765   20.541790 H          1 MOL1         0.0971
       5    C2      19.821808   18.848208   20.701563 C.3        1 MOL1        -0.1385
       6    H4      20.741450   18.636107   20.138376 H          1 MOL1         0.0960
       7    H5      19.208790   17.936827   20.662513 H          1 MOL1         0.0960
       8    C3      20.172007   19.178150   22.169437 C.3        1 MOL1        -0.1409
       9    H6      20.787200   20.087895   22.199117 H          1 MOL1         0.0960
      10    H7      19.246632   19.402041   22.710971 H          1 MOL1         0.0960
      11    C4      20.934902   18.015637   22.850879 C.3        1 MOL1        -0.1409
      12    H8      21.828167   17.797377   22.249216 H          1 MOL1         0.0960
      13    H9      20.328113   17.099848   22.834514 H          1 MOL1         0.0960
      14    C5      21.395961   18.321744   24.300098 C.3        1 MOL1        -0.1409
      15    H10     22.298365   17.726373   24.496704 H          1 MOL1         0.0960
      16    H11     21.714269   19.369034   24.387744 H          1 MOL1         0.0960
      17    C6      20.363908   17.966913   25.403806 C.3        1 MOL1        -0.1450
      18    H12     20.835188   18.100743   26.386560 H          1 MOL1         0.0960
      19    H13     20.112089   16.900438   25.333467 H          1 MOL1         0.0960
      20    C7      19.058569   18.784525   25.370792 C.3        1 MOL1         0.0172
      21    H14     18.531980   18.604801   24.430981 H          1 MOL1         0.0934
      22    H15     18.408091   18.458471   26.186906 H          1 MOL1         0.0934
      23    N1      19.272674   20.277593   25.523065 N.4        1 MOL1        -0.5956
      24    H16     19.731056   20.505911   26.411177 H          1 MOL1         0.3624
      25    H17     18.386786   20.794208   25.501585 H          1 MOL1         0.3624
      26    H18     19.861439   20.651798   24.772827 H          1 MOL1         0.3624
@<TRIPOS>BOND
    1     1     2    1
    2     1     3    1
    3     1     4    1
    4     1     5    1
    5     5     6    1
    6     5     7    1
    7     5     8    1
    8     8     9    1
    9     8    10    1
   10     8    11    1
   11    11    12    1
   12    11    13    1
   13    11    14    1
   14    14    15    1
   15    14    16    1
   16    14    17    1
   17    17    18    1
   18    17    19    1
   19    17    20    1
   20    20    21    1
   21    20    22    1
   22    20    23    1
   23    23    24    1
   24    23    25    1
   25    23    26    1
@<TRIPOS>SUBSTRUCTURE
       1 MOL1            1 RESIDUE      1      MOL     
@<SCITEGIC>MOL_PROPERTY
VM2 Rank
SciTegic.value.IntegerValue
141

@<SCITEGIC>MOL_PROPERTY
Conf_Id
SciTegic.value.IntegerValue
1301

@<SCITEGIC>MOL_PROPERTY
Probability
SciTegic.value.DoubleValue
0.01

@<SCITEGIC>MOL_PROPERTY
Sum Probability
SciTegic.value.DoubleValue
99.73

@<SCITEGIC>MOL_PROPERTY
Delta G
SciTegic.value.DoubleValue
3.799

@<SCITEGIC>MOL_PROPERTY
G
SciTegic.value.DoubleValue
52.060

@<SCITEGIC>MOL_PROPERTY
E
SciTegic.value.DoubleValue
19.191

@<SCITEGIC>MOL_PROPERTY
-TS
SciTegic.value.DoubleValue
32.869

@<SCITEGIC>MOL_PROPERTY
U+W
SciTegic.value.DoubleValue
-2.270

@<SCITEGIC>MOL_PROPERTY
U
SciTegic.value.DoubleValue
51.830

@<SCITEGIC>MOL_PROPERTY
W
SciTegic.value.DoubleValue
-54.101

@<SCITEGIC>MOL_PROPERTY
W(PB)
SciTegic.value.DoubleValue
-56.379

@<SCITEGIC>MOL_PROPERTY
W(SA)
SciTegic.value.DoubleValue
2.279

@<SCITEGIC>MOL_PROPERTY
Valence
SciTegic.value.DoubleValue
4.864

@<SCITEGIC>MOL_PROPERTY
Coulomb
SciTegic.value.DoubleValue
46.522

@<SCITEGIC>MOL_PROPERTY
VdW
SciTegic.value.DoubleValue
0.444

@<SCITEGIC>MOL_PROPERTY
VdW6
SciTegic.value.DoubleValue
-8.267

@<SCITEGIC>MOL_PROPERTY
VdW12
SciTegic.value.DoubleValue
8.711

@<SCITEGIC>MOL_PROPERTY
Bond
SciTegic.value.DoubleValue
0.239

@<SCITEGIC>MOL_PROPERTY
Angle
SciTegic.value.DoubleValue
1.441

@<SCITEGIC>MOL_PROPERTY
Pdih
SciTegic.value.DoubleValue
3.184

@<SCITEGIC>MOL_PROPERTY
Idih
SciTegic.value.DoubleValue
0.000

@<SCITEGIC>MOL_PROPERTY
Tether
SciTegic.value.DoubleValue
0.000

@<TRIPOS>MOLECULE
guest-s14_vm2.mol2 : vm2 ligand conformer 142
          26          25           1
SMALL
USER_CHARGES
 
@<TRIPOS>ATOM
       1    C1      19.707148   19.627295   19.885102 C.3        1 MOL1        -0.2400
       2    H1      18.963769   18.820371   19.887297 H          1 MOL1         0.0971
       3    H2      19.219490   20.545370   20.237708 H          1 MOL1         0.0971
       4    H3      20.015947   19.789444   18.844306 H          1 MOL1         0.0971
       5    C2      20.928849   19.274480   20.763514 C.3        1 MOL1        -0.1385
       6    H4      21.691187   20.056809   20.642849 H          1 MOL1         0.0960
       7    H5      21.385746   18.342142   20.403336 H          1 MOL1         0.0960
       8    C3      20.584395   19.142370   22.266548 C.3        1 MOL1        -0.1409
       9    H6      21.515764   18.981498   22.826445 H          1 MOL1         0.0960
      10    H7      20.161693   20.092836   22.615794 H          1 MOL1         0.0960
      11    C4      19.598826   17.986932   22.568603 C.3        1 MOL1        -0.1409
      12    H8      19.929080   17.088529   22.029187 H          1 MOL1         0.0960
      13    H9      18.605383   18.234422   22.171340 H          1 MOL1         0.0960
      14    C5      19.470150   17.625484   24.071143 C.3        1 MOL1        -0.1409
      15    H10     18.801949   16.756157   24.142790 H          1 MOL1         0.0960
      16    H11     20.437879   17.282543   24.459269 H          1 MOL1         0.0960
      17    C6      18.885734   18.748837   24.969133 C.3        1 MOL1        -0.1450
      18    H12     18.420386   18.290977   25.852137 H          1 MOL1         0.0960
      19    H13     18.075641   19.263307   24.435496 H          1 MOL1         0.0960
      20    C7      19.917663   19.787501   25.457236 C.3        1 MOL1         0.0172
      21    H14     20.414031   20.259452   24.607898 H          1 MOL1         0.0934
      22    H15     19.401086   20.568382   26.021923 H          1 MOL1         0.0934
      23    N1      20.988236   19.206101   26.359720 N.4        1 MOL1        -0.5956
      24    H16     21.538619   18.486587   25.881272 H          1 MOL1         0.3624
      25    H17     20.585470   18.772760   27.196943 H          1 MOL1         0.3624
      26    H18     21.646311   19.924122   26.681531 H          1 MOL1         0.3624
@<TRIPOS>BOND
    1     1     2    1
    2     1     3    1
    3     1     4    1
    4     1     5    1
    5     5     6    1
    6     5     7    1
    7     5     8    1
    8     8     9    1
    9     8    10    1
   10     8    11    1
   11    11    12    1
   12    11    13    1
   13    11    14    1
   14    14    15    1
   15    14    16    1
   16    14    17    1
   17    17    18    1
   18    17    19    1
   19    17    20    1
   20    20    21    1
   21    20    22    1
   22    20    23    1
   23    23    24    1
   24    23    25    1
   25    23    26    1
@<TRIPOS>SUBSTRUCTURE
       1 MOL1            1 RESIDUE      1      MOL     
@<SCITEGIC>MOL_PROPERTY
VM2 Rank
SciTegic.value.IntegerValue
142

@<SCITEGIC>MOL_PROPERTY
Conf_Id
SciTegic.value.IntegerValue
517

@<SCITEGIC>MOL_PROPERTY
Probability
SciTegic.value.DoubleValue
0.01

@<SCITEGIC>MOL_PROPERTY
Sum Probability
SciTegic.value.DoubleValue
99.74

@<SCITEGIC>MOL_PROPERTY
Delta G
SciTegic.value.DoubleValue
3.800

@<SCITEGIC>MOL_PROPERTY
G
SciTegic.value.DoubleValue
52.061

@<SCITEGIC>MOL_PROPERTY
E
SciTegic.value.DoubleValue
19.187

@<SCITEGIC>MOL_PROPERTY
-TS
SciTegic.value.DoubleValue
32.874

@<SCITEGIC>MOL_PROPERTY
U+W
SciTegic.value.DoubleValue
-2.275

@<SCITEGIC>MOL_PROPERTY
U
SciTegic.value.DoubleValue
51.886

@<SCITEGIC>MOL_PROPERTY
W
SciTegic.value.DoubleValue
-54.161

@<SCITEGIC>MOL_PROPERTY
W(PB)
SciTegic.value.DoubleValue
-56.424

@<SCITEGIC>MOL_PROPERTY
W(SA)
SciTegic.value.DoubleValue
2.264

@<SCITEGIC>MOL_PROPERTY
Valence
SciTegic.value.DoubleValue
5.153

@<SCITEGIC>MOL_PROPERTY
Coulomb
SciTegic.value.DoubleValue
46.018

@<SCITEGIC>MOL_PROPERTY
VdW
SciTegic.value.DoubleValue
0.715

@<SCITEGIC>MOL_PROPERTY
VdW6
SciTegic.value.DoubleValue
-8.701

@<SCITEGIC>MOL_PROPERTY
VdW12
SciTegic.value.DoubleValue
9.416

@<SCITEGIC>MOL_PROPERTY
Bond
SciTegic.value.DoubleValue
0.265

@<SCITEGIC>MOL_PROPERTY
Angle
SciTegic.value.DoubleValue
1.543

@<SCITEGIC>MOL_PROPERTY
Pdih
SciTegic.value.DoubleValue
3.345

@<SCITEGIC>MOL_PROPERTY
Idih
SciTegic.value.DoubleValue
0.000

@<SCITEGIC>MOL_PROPERTY
Tether
SciTegic.value.DoubleValue
0.000

@<TRIPOS>MOLECULE
guest-s14_vm2.mol2 : vm2 ligand conformer 143
          26          25           1
SMALL
USER_CHARGES
 
@<TRIPOS>ATOM
       1    C1      19.642311   19.584596   19.882955 C.3        1 MOL1        -0.2400
       2    H1      20.675182   19.949470   19.944504 H          1 MOL1         0.0971
       3    H2      19.420593   19.396783   18.824430 H          1 MOL1         0.0971
       4    H3      18.973941   20.383447   20.229540 H          1 MOL1         0.0971
       5    C2      19.446087   18.296361   20.713969 C.3        1 MOL1        -0.1385
       6    H4      20.139980   17.520373   20.361702 H          1 MOL1         0.0960
       7    H5      18.433879   17.908026   20.534000 H          1 MOL1         0.0960
       8    C3      19.632680   18.514573   22.234753 C.3        1 MOL1        -0.1409
       9    H6      18.909275   19.266686   22.573936 H          1 MOL1         0.0960
      10    H7      19.388811   17.578470   22.755378 H          1 MOL1         0.0960
      11    C4      21.066820   18.955290   22.617679 C.3        1 MOL1        -0.1409
      12    H8      21.247898   19.977570   22.259698 H          1 MOL1         0.0960
      13    H9      21.787534   18.314478   22.091278 H          1 MOL1         0.0960
      14    C5      21.379451   18.884866   24.134958 C.3        1 MOL1        -0.1409
      15    H10     21.296509   17.848878   24.487946 H          1 MOL1         0.0960
      16    H11     22.436951   19.153812   24.264251 H          1 MOL1         0.0960
      17    C6      20.535277   19.836833   25.024330 C.3        1 MOL1        -0.1450
      18    H12     20.405640   20.800138   24.513512 H          1 MOL1         0.0960
      19    H13     21.097435   20.056600   25.941699 H          1 MOL1         0.0960
      20    C7      19.153354   19.283409   25.431709 C.3        1 MOL1         0.0172
      21    H14     18.612669   20.048310   25.995700 H          1 MOL1         0.0934
      22    H15     18.564479   19.039730   24.546080 H          1 MOL1         0.0934
      23    N1      19.225020   18.043071   26.300647 N.4        1 MOL1        -0.5956
      24    H16     18.292142   17.711740   26.569232 H          1 MOL1         0.3624
      25    H17     19.742210   18.216384   27.168647 H          1 MOL1         0.3624
      26    H18     19.692083   17.268664   25.819316 H          1 MOL1         0.3624
@<TRIPOS>BOND
    1     1     2    1
    2     1     3    1
    3     1     4    1
    4     1     5    1
    5     5     6    1
    6     5     7    1
    7     5     8    1
    8     8     9    1
    9     8    10    1
   10     8    11    1
   11    11    12    1
   12    11    13    1
   13    11    14    1
   14    14    15    1
   15    14    16    1
   16    14    17    1
   17    17    18    1
   18    17    19    1
   19    17    20    1
   20    20    21    1
   21    20    22    1
   22    20    23    1
   23    23    24    1
   24    23    25    1
   25    23    26    1
@<TRIPOS>SUBSTRUCTURE
       1 MOL1            1 RESIDUE      1      MOL     
@<SCITEGIC>MOL_PROPERTY
VM2 Rank
SciTegic.value.IntegerValue
143

@<SCITEGIC>MOL_PROPERTY
Conf_Id
SciTegic.value.IntegerValue
707

@<SCITEGIC>MOL_PROPERTY
Probability
SciTegic.value.DoubleValue
0.01

@<SCITEGIC>MOL_PROPERTY
Sum Probability
SciTegic.value.DoubleValue
99.76

@<SCITEGIC>MOL_PROPERTY
Delta G
SciTegic.value.DoubleValue
3.813

@<SCITEGIC>MOL_PROPERTY
G
SciTegic.value.DoubleValue
52.074

@<SCITEGIC>MOL_PROPERTY
E
SciTegic.value.DoubleValue
19.200

@<SCITEGIC>MOL_PROPERTY
-TS
SciTegic.value.DoubleValue
32.874

@<SCITEGIC>MOL_PROPERTY
U+W
SciTegic.value.DoubleValue
-2.262

@<SCITEGIC>MOL_PROPERTY
U
SciTegic.value.DoubleValue
51.886

@<SCITEGIC>MOL_PROPERTY
W
SciTegic.value.DoubleValue
-54.148

@<SCITEGIC>MOL_PROPERTY
W(PB)
SciTegic.value.DoubleValue
-56.400

@<SCITEGIC>MOL_PROPERTY
W(SA)
SciTegic.value.DoubleValue
2.252

@<SCITEGIC>MOL_PROPERTY
Valence
SciTegic.value.DoubleValue
5.154

@<SCITEGIC>MOL_PROPERTY
Coulomb
SciTegic.value.DoubleValue
46.018

@<SCITEGIC>MOL_PROPERTY
VdW
SciTegic.value.DoubleValue
0.714

@<SCITEGIC>MOL_PROPERTY
VdW6
SciTegic.value.DoubleValue
-8.701

@<SCITEGIC>MOL_PROPERTY
VdW12
SciTegic.value.DoubleValue
9.415

@<SCITEGIC>MOL_PROPERTY
Bond
SciTegic.value.DoubleValue
0.265

@<SCITEGIC>MOL_PROPERTY
Angle
SciTegic.value.DoubleValue
1.544

@<SCITEGIC>MOL_PROPERTY
Pdih
SciTegic.value.DoubleValue
3.345

@<SCITEGIC>MOL_PROPERTY
Idih
SciTegic.value.DoubleValue
0.000

@<SCITEGIC>MOL_PROPERTY
Tether
SciTegic.value.DoubleValue
0.000

@<TRIPOS>MOLECULE
guest-s14_vm2.mol2 : vm2 ligand conformer 144
          26          25           1
SMALL
USER_CHARGES
 
@<TRIPOS>ATOM
       1    C1      19.541157   20.322864   20.037317 C.3        1 MOL1        -0.2400
       2    H1      19.690327   21.256896   20.594600 H          1 MOL1         0.0971
       3    H2      19.915998   20.475892   19.016970 H          1 MOL1         0.0971
       4    H3      18.462121   20.130614   19.974538 H          1 MOL1         0.0971
       5    C2      20.275498   19.147658   20.716944 C.3        1 MOL1        -0.1385
       6    H4      21.354861   19.353995   20.735227 H          1 MOL1         0.0960
       7    H5      20.136976   18.236543   20.118122 H          1 MOL1         0.0960
       8    C3      19.765945   18.910192   22.155733 C.3        1 MOL1        -0.1409
       9    H6      19.897163   19.831799   22.732904 H          1 MOL1         0.0960
      10    H7      18.687618   18.701794   22.128094 H          1 MOL1         0.0960
      11    C4      20.503161   17.730848   22.836520 C.3        1 MOL1        -0.1409
      12    H8      21.583177   17.928507   22.876866 H          1 MOL1         0.0960
      13    H9      20.381769   16.842705   22.200891 H          1 MOL1         0.0960
      14    C5      19.973324   17.383214   24.252479 C.3        1 MOL1        -0.1409
      15    H10     18.882282   17.500768   24.292853 H          1 MOL1         0.0960
      16    H11     20.156912   16.313636   24.424974 H          1 MOL1         0.0960
      17    C6      20.652738   18.157459   25.413575 C.3        1 MOL1        -0.1450
      18    H12     21.734463   17.970505   25.388124 H          1 MOL1         0.0960
      19    H13     20.298747   17.747237   26.368681 H          1 MOL1         0.0960
      20    C7      20.415858   19.679747   25.416045 C.3        1 MOL1         0.0172
      21    H14     20.932866   20.123777   26.271038 H          1 MOL1         0.0934
      22    H15     20.831338   20.121257   24.507587 H          1 MOL1         0.0934
      23    N1      18.953320   20.067017   25.512388 N.4        1 MOL1        -0.5956
      24    H16     18.413230   19.696579   24.724601 H          1 MOL1         0.3624
      25    H17     18.827656   21.085028   25.516075 H          1 MOL1         0.3624
      26    H18     18.522408   19.708953   26.370928 H          1 MOL1         0.3624
@<TRIPOS>BOND
    1     1     2    1
    2     1     3    1
    3     1     4    1
    4     1     5    1
    5     5     6    1
    6     5     7    1
    7     5     8    1
    8     8     9    1
    9     8    10    1
   10     8    11    1
   11    11    12    1
   12    11    13    1
   13    11    14    1
   14    14    15    1
   15    14    16    1
   16    14    17    1
   17    17    18    1
   18    17    19    1
   19    17    20    1
   20    20    21    1
   21    20    22    1
   22    20    23    1
   23    23    24    1
   24    23    25    1
   25    23    26    1
@<TRIPOS>SUBSTRUCTURE
       1 MOL1            1 RESIDUE      1      MOL     
@<SCITEGIC>MOL_PROPERTY
VM2 Rank
SciTegic.value.IntegerValue
144

@<SCITEGIC>MOL_PROPERTY
Conf_Id
SciTegic.value.IntegerValue
1364

@<SCITEGIC>MOL_PROPERTY
Probability
SciTegic.value.DoubleValue
0.01

@<SCITEGIC>MOL_PROPERTY
Sum Probability
SciTegic.value.DoubleValue
99.77

@<SCITEGIC>MOL_PROPERTY
Delta G
SciTegic.value.DoubleValue
3.822

@<SCITEGIC>MOL_PROPERTY
G
SciTegic.value.DoubleValue
52.083

@<SCITEGIC>MOL_PROPERTY
E
SciTegic.value.DoubleValue
19.214

@<SCITEGIC>MOL_PROPERTY
-TS
SciTegic.value.DoubleValue
32.869

@<SCITEGIC>MOL_PROPERTY
U+W
SciTegic.value.DoubleValue
-2.248

@<SCITEGIC>MOL_PROPERTY
U
SciTegic.value.DoubleValue
51.830

@<SCITEGIC>MOL_PROPERTY
W
SciTegic.value.DoubleValue
-54.078

@<SCITEGIC>MOL_PROPERTY
W(PB)
SciTegic.value.DoubleValue
-56.359

@<SCITEGIC>MOL_PROPERTY
W(SA)
SciTegic.value.DoubleValue
2.281

@<SCITEGIC>MOL_PROPERTY
Valence
SciTegic.value.DoubleValue
4.864

@<SCITEGIC>MOL_PROPERTY
Coulomb
SciTegic.value.DoubleValue
46.522

@<SCITEGIC>MOL_PROPERTY
VdW
SciTegic.value.DoubleValue
0.444

@<SCITEGIC>MOL_PROPERTY
VdW6
SciTegic.value.DoubleValue
-8.267

@<SCITEGIC>MOL_PROPERTY
VdW12
SciTegic.value.DoubleValue
8.710

@<SCITEGIC>MOL_PROPERTY
Bond
SciTegic.value.DoubleValue
0.239

@<SCITEGIC>MOL_PROPERTY
Angle
SciTegic.value.DoubleValue
1.439

@<SCITEGIC>MOL_PROPERTY
Pdih
SciTegic.value.DoubleValue
3.186

@<SCITEGIC>MOL_PROPERTY
Idih
SciTegic.value.DoubleValue
0.000

@<SCITEGIC>MOL_PROPERTY
Tether
SciTegic.value.DoubleValue
0.000

@<TRIPOS>MOLECULE
guest-s14_vm2.mol2 : vm2 ligand conformer 145
          26          25           1
SMALL
USER_CHARGES
 
@<TRIPOS>ATOM
       1    C1      20.320623   20.430098   20.736636 C.3        1 MOL1        -0.2400
       2    H1      20.147809   20.834150   21.741870 H          1 MOL1         0.0971
       3    H2      21.397100   20.476267   20.526889 H          1 MOL1         0.0971
       4    H3      19.810645   21.090369   20.023332 H          1 MOL1         0.0971
       5    C2      19.791383   18.983686   20.608801 C.3        1 MOL1        -0.1385
       6    H4      19.875546   18.667876   19.559595 H          1 MOL1         0.0960
       7    H5      18.719004   18.959507   20.844689 H          1 MOL1         0.0960
       8    C3      20.557125   17.966386   21.492783 C.3        1 MOL1        -0.1409
       9    H6      20.146941   16.962950   21.313795 H          1 MOL1         0.0960
      10    H7      21.604242   17.925773   21.162578 H          1 MOL1         0.0960
      11    C4      20.525307   18.260234   23.014706 C.3        1 MOL1        -0.1409
      12    H8      21.036833   19.210341   23.207570 H          1 MOL1         0.0960
      13    H9      21.105179   17.481663   23.529135 H          1 MOL1         0.0960
      14    C5      19.092174   18.298461   23.601074 C.3        1 MOL1        -0.1409
      15    H10     18.555366   19.175306   23.214923 H          1 MOL1         0.0960
      16    H11     18.539900   17.417753   23.245397 H          1 MOL1         0.0960
      17    C6      19.035369   18.311789   25.149966 C.3        1 MOL1        -0.1450
      18    H12     19.523502   17.417287   25.559126 H          1 MOL1         0.0960
      19    H13     17.980875   18.242628   25.448437 H          1 MOL1         0.0960
      20    C7      19.624523   19.580857   25.800121 C.3        1 MOL1         0.0172
      21    H14     19.335230   20.462500   25.221933 H          1 MOL1         0.0934
      22    H15     19.214532   19.687104   26.808144 H          1 MOL1         0.0934
      23    N1      21.134497   19.567489   25.936913 N.4        1 MOL1        -0.5956
      24    H16     21.484206   20.427720   26.372889 H          1 MOL1         0.3624
      25    H17     21.597521   19.478722   25.028261 H          1 MOL1         0.3624
      26    H18     21.455385   18.786495   26.518408 H          1 MOL1         0.3624
@<TRIPOS>BOND
    1     1     2    1
    2     1     3    1
    3     1     4    1
    4     1     5    1
    5     5     6    1
    6     5     7    1
    7     5     8    1
    8     8     9    1
    9     8    10    1
   10     8    11    1
   11    11    12    1
   12    11    13    1
   13    11    14    1
   14    14    15    1
   15    14    16    1
   16    14    17    1
   17    17    18    1
   18    17    19    1
   19    17    20    1
   20    20    21    1
   21    20    22    1
   22    20    23    1
   23    23    24    1
   24    23    25    1
   25    23    26    1
@<TRIPOS>SUBSTRUCTURE
       1 MOL1            1 RESIDUE      1      MOL     
@<SCITEGIC>MOL_PROPERTY
VM2 Rank
SciTegic.value.IntegerValue
145

@<SCITEGIC>MOL_PROPERTY
Conf_Id
SciTegic.value.IntegerValue
1563

@<SCITEGIC>MOL_PROPERTY
Probability
SciTegic.value.DoubleValue
0.01

@<SCITEGIC>MOL_PROPERTY
Sum Probability
SciTegic.value.DoubleValue
99.78

@<SCITEGIC>MOL_PROPERTY
Delta G
SciTegic.value.DoubleValue
3.902

@<SCITEGIC>MOL_PROPERTY
G
SciTegic.value.DoubleValue
52.164

@<SCITEGIC>MOL_PROPERTY
E
SciTegic.value.DoubleValue
19.219

@<SCITEGIC>MOL_PROPERTY
-TS
SciTegic.value.DoubleValue
32.944

@<SCITEGIC>MOL_PROPERTY
U+W
SciTegic.value.DoubleValue
-2.243

@<SCITEGIC>MOL_PROPERTY
U
SciTegic.value.DoubleValue
51.945

@<SCITEGIC>MOL_PROPERTY
W
SciTegic.value.DoubleValue
-54.188

@<SCITEGIC>MOL_PROPERTY
W(PB)
SciTegic.value.DoubleValue
-56.412

@<SCITEGIC>MOL_PROPERTY
W(SA)
SciTegic.value.DoubleValue
2.224

@<SCITEGIC>MOL_PROPERTY
Valence
SciTegic.value.DoubleValue
4.646

@<SCITEGIC>MOL_PROPERTY
Coulomb
SciTegic.value.DoubleValue
46.716

@<SCITEGIC>MOL_PROPERTY
VdW
SciTegic.value.DoubleValue
0.583

@<SCITEGIC>MOL_PROPERTY
VdW6
SciTegic.value.DoubleValue
-8.945

@<SCITEGIC>MOL_PROPERTY
VdW12
SciTegic.value.DoubleValue
9.527

@<SCITEGIC>MOL_PROPERTY
Bond
SciTegic.value.DoubleValue
0.266

@<SCITEGIC>MOL_PROPERTY
Angle
SciTegic.value.DoubleValue
1.504

@<SCITEGIC>MOL_PROPERTY
Pdih
SciTegic.value.DoubleValue
2.876

@<SCITEGIC>MOL_PROPERTY
Idih
SciTegic.value.DoubleValue
0.000

@<SCITEGIC>MOL_PROPERTY
Tether
SciTegic.value.DoubleValue
0.000

@<TRIPOS>MOLECULE
guest-s14_vm2.mol2 : vm2 ligand conformer 146
          26          25           1
SMALL
USER_CHARGES
 
@<TRIPOS>ATOM
       1    C1      20.393503   20.108820   20.076162 C.3        1 MOL1        -0.2400
       2    H1      19.453593   20.527680   19.693818 H          1 MOL1         0.0971
       3    H2      20.673230   20.672944   20.972686 H          1 MOL1         0.0971
       4    H3      21.168014   20.283085   19.318094 H          1 MOL1         0.0971
       5    C2      20.246818   18.595946   20.361826 C.3        1 MOL1        -0.1385
       6    H4      21.211584   18.169650   20.670162 H          1 MOL1         0.0960
       7    H5      19.984449   18.097394   19.418150 H          1 MOL1         0.0960
       8    C3      19.153399   18.272218   21.412413 C.3        1 MOL1        -0.1409
       9    H6      18.367434   19.039696   21.391982 H          1 MOL1         0.0960
      10    H7      18.660024   17.336689   21.114442 H          1 MOL1         0.0960
      11    C4      19.675089   18.082708   22.860378 C.3        1 MOL1        -0.1409
      12    H8      20.380734   17.240924   22.885549 H          1 MOL1         0.0960
      13    H9      18.824230   17.786558   23.487636 H          1 MOL1         0.0960
      14    C5      20.351897   19.338264   23.463536 C.3        1 MOL1        -0.1409
      15    H10     21.255786   19.573730   22.887342 H          1 MOL1         0.0960
      16    H11     19.681672   20.204099   23.371843 H          1 MOL1         0.0960
      17    C6      20.761693   19.156093   24.944097 C.3        1 MOL1        -0.1450
      18    H12     21.339675   20.033720   25.262924 H          1 MOL1         0.0960
      19    H13     21.428973   18.289057   25.038850 H          1 MOL1         0.0960
      20    C7      19.552168   18.985847   25.882628 C.3        1 MOL1         0.0172
      21    H14     18.887844   19.848886   25.786622 H          1 MOL1         0.0934
      22    H15     18.992590   18.088092   25.608219 H          1 MOL1         0.0934
      23    N1      19.946433   18.859104   27.339959 N.4        1 MOL1        -0.5956
      24    H16     20.453410   19.686110   27.671960 H          1 MOL1         0.3624
      25    H17     20.552347   18.048195   27.502719 H          1 MOL1         0.3624
      26    H18     19.127730   18.746985   27.947855 H          1 MOL1         0.3624
@<TRIPOS>BOND
    1     1     2    1
    2     1     3    1
    3     1     4    1
    4     1     5    1
    5     5     6    1
    6     5     7    1
    7     5     8    1
    8     8     9    1
    9     8    10    1
   10     8    11    1
   11    11    12    1
   12    11    13    1
   13    11    14    1
   14    14    15    1
   15    14    16    1
   16    14    17    1
   17    17    18    1
   18    17    19    1
   19    17    20    1
   20    20    21    1
   21    20    22    1
   22    20    23    1
   23    23    24    1
   24    23    25    1
   25    23    26    1
@<TRIPOS>SUBSTRUCTURE
       1 MOL1            1 RESIDUE      1      MOL     
@<SCITEGIC>MOL_PROPERTY
VM2 Rank
SciTegic.value.IntegerValue
146

@<SCITEGIC>MOL_PROPERTY
Conf_Id
SciTegic.value.IntegerValue
1354

@<SCITEGIC>MOL_PROPERTY
Probability
SciTegic.value.DoubleValue
0.01

@<SCITEGIC>MOL_PROPERTY
Sum Probability
SciTegic.value.DoubleValue
99.79

@<SCITEGIC>MOL_PROPERTY
Delta G
SciTegic.value.DoubleValue
3.904

@<SCITEGIC>MOL_PROPERTY
G
SciTegic.value.DoubleValue
52.165

@<SCITEGIC>MOL_PROPERTY
E
SciTegic.value.DoubleValue
19.384

@<SCITEGIC>MOL_PROPERTY
-TS
SciTegic.value.DoubleValue
32.782

@<SCITEGIC>MOL_PROPERTY
U+W
SciTegic.value.DoubleValue
-2.078

@<SCITEGIC>MOL_PROPERTY
U
SciTegic.value.DoubleValue
51.397

@<SCITEGIC>MOL_PROPERTY
W
SciTegic.value.DoubleValue
-53.475

@<SCITEGIC>MOL_PROPERTY
W(PB)
SciTegic.value.DoubleValue
-55.760

@<SCITEGIC>MOL_PROPERTY
W(SA)
SciTegic.value.DoubleValue
2.285

@<SCITEGIC>MOL_PROPERTY
Valence
SciTegic.value.DoubleValue
5.541

@<SCITEGIC>MOL_PROPERTY
Coulomb
SciTegic.value.DoubleValue
45.028

@<SCITEGIC>MOL_PROPERTY
VdW
SciTegic.value.DoubleValue
0.828

@<SCITEGIC>MOL_PROPERTY
VdW6
SciTegic.value.DoubleValue
-7.846

@<SCITEGIC>MOL_PROPERTY
VdW12
SciTegic.value.DoubleValue
8.674

@<SCITEGIC>MOL_PROPERTY
Bond
SciTegic.value.DoubleValue
0.240

@<SCITEGIC>MOL_PROPERTY
Angle
SciTegic.value.DoubleValue
1.341

@<SCITEGIC>MOL_PROPERTY
Pdih
SciTegic.value.DoubleValue
3.960

@<SCITEGIC>MOL_PROPERTY
Idih
SciTegic.value.DoubleValue
0.000

@<SCITEGIC>MOL_PROPERTY
Tether
SciTegic.value.DoubleValue
0.000

@<TRIPOS>MOLECULE
guest-s14_vm2.mol2 : vm2 ligand conformer 147
          26          25           1
SMALL
USER_CHARGES
 
@<TRIPOS>ATOM
       1    C1      18.921865   19.138062   20.026883 C.3        1 MOL1        -0.2400
       2    H1      18.923961   20.178208   19.675949 H          1 MOL1         0.0971
       3    H2      18.493036   18.518561   19.228618 H          1 MOL1         0.0971
       4    H3      18.252113   19.076015   20.891649 H          1 MOL1         0.0971
       5    C2      20.355757   18.667724   20.365469 C.3        1 MOL1        -0.1385
       6    H4      20.960666   18.741119   19.450802 H          1 MOL1         0.0960
       7    H5      20.354175   17.604079   20.641569 H          1 MOL1         0.0960
       8    C3      21.033449   19.512262   21.475238 C.3        1 MOL1        -0.1409
       9    H6      22.100337   19.605838   21.229439 H          1 MOL1         0.0960
      10    H7      20.638019   20.537328   21.467810 H          1 MOL1         0.0960
      11    C4      20.935275   18.913967   22.902504 C.3        1 MOL1        -0.1409
      12    H8      21.512203   19.559494   23.577462 H          1 MOL1         0.0960
      13    H9      21.430201   17.933210   22.920652 H          1 MOL1         0.0960
      14    C5      19.488214   18.768776   23.434693 C.3        1 MOL1        -0.1409
      15    H10     18.960393   19.728531   23.347781 H          1 MOL1         0.0960
      16    H11     18.943818   18.049082   22.810088 H          1 MOL1         0.0960
      17    C6      19.425722   18.275076   24.899460 C.3        1 MOL1        -0.1450
      18    H12     19.955664   17.317457   24.989587 H          1 MOL1         0.0960
      19    H13     18.377828   18.080383   25.163955 H          1 MOL1         0.0960
      20    C7      20.013362   19.290063   25.898090 C.3        1 MOL1         0.0172
      21    H14     21.070408   19.458681   25.677609 H          1 MOL1         0.0934
      22    H15     19.485873   20.243376   25.806820 H          1 MOL1         0.0934
      23    N1      19.907354   18.833070   27.338663 N.4        1 MOL1        -0.5956
      24    H16     20.303466   19.522194   27.987189 H          1 MOL1         0.3624
      25    H17     20.406849   17.951934   27.497725 H          1 MOL1         0.3624
      26    H18     18.933278   18.683044   27.621252 H          1 MOL1         0.3624
@<TRIPOS>BOND
    1     1     2    1
    2     1     3    1
    3     1     4    1
    4     1     5    1
    5     5     6    1
    6     5     7    1
    7     5     8    1
    8     8     9    1
    9     8    10    1
   10     8    11    1
   11    11    12    1
   12    11    13    1
   13    11    14    1
   14    14    15    1
   15    14    16    1
   16    14    17    1
   17    17    18    1
   18    17    19    1
   19    17    20    1
   20    20    21    1
   21    20    22    1
   22    20    23    1
   23    23    24    1
   24    23    25    1
   25    23    26    1
@<TRIPOS>SUBSTRUCTURE
       1 MOL1            1 RESIDUE      1      MOL     
@<SCITEGIC>MOL_PROPERTY
VM2 Rank
SciTegic.value.IntegerValue
147

@<SCITEGIC>MOL_PROPERTY
Conf_Id
SciTegic.value.IntegerValue
1296

@<SCITEGIC>MOL_PROPERTY
Probability
SciTegic.value.DoubleValue
0.01

@<SCITEGIC>MOL_PROPERTY
Sum Probability
SciTegic.value.DoubleValue
99.80

@<SCITEGIC>MOL_PROPERTY
Delta G
SciTegic.value.DoubleValue
3.913

@<SCITEGIC>MOL_PROPERTY
G
SciTegic.value.DoubleValue
52.174

@<SCITEGIC>MOL_PROPERTY
E
SciTegic.value.DoubleValue
19.392

@<SCITEGIC>MOL_PROPERTY
-TS
SciTegic.value.DoubleValue
32.782

@<SCITEGIC>MOL_PROPERTY
U+W
SciTegic.value.DoubleValue
-2.070

@<SCITEGIC>MOL_PROPERTY
U
SciTegic.value.DoubleValue
51.397

@<SCITEGIC>MOL_PROPERTY
W
SciTegic.value.DoubleValue
-53.467

@<SCITEGIC>MOL_PROPERTY
W(PB)
SciTegic.value.DoubleValue
-55.757

@<SCITEGIC>MOL_PROPERTY
W(SA)
SciTegic.value.DoubleValue
2.290

@<SCITEGIC>MOL_PROPERTY
Valence
SciTegic.value.DoubleValue
5.541

@<SCITEGIC>MOL_PROPERTY
Coulomb
SciTegic.value.DoubleValue
45.028

@<SCITEGIC>MOL_PROPERTY
VdW
SciTegic.value.DoubleValue
0.828

@<SCITEGIC>MOL_PROPERTY
VdW6
SciTegic.value.DoubleValue
-7.846

@<SCITEGIC>MOL_PROPERTY
VdW12
SciTegic.value.DoubleValue
8.674

@<SCITEGIC>MOL_PROPERTY
Bond
SciTegic.value.DoubleValue
0.240

@<SCITEGIC>MOL_PROPERTY
Angle
SciTegic.value.DoubleValue
1.341

@<SCITEGIC>MOL_PROPERTY
Pdih
SciTegic.value.DoubleValue
3.960

@<SCITEGIC>MOL_PROPERTY
Idih
SciTegic.value.DoubleValue
0.000

@<SCITEGIC>MOL_PROPERTY
Tether
SciTegic.value.DoubleValue
0.000

@<TRIPOS>MOLECULE
guest-s14_vm2.mol2 : vm2 ligand conformer 148
          26          25           1
SMALL
USER_CHARGES
 
@<TRIPOS>ATOM
       1    C1      19.065120   18.377210   20.222604 C.3        1 MOL1        -0.2400
       2    H1      18.848640   17.690853   21.050523 H          1 MOL1         0.0971
       3    H2      18.377905   19.230747   20.286211 H          1 MOL1         0.0971
       4    H3      18.850392   17.842120   19.288557 H          1 MOL1         0.0971
       5    C2      20.536976   18.843669   20.250943 C.3        1 MOL1        -0.1385
       6    H4      20.750081   19.393666   19.323663 H          1 MOL1         0.0960
       7    H5      21.197585   17.965464   20.242150 H          1 MOL1         0.0960
       8    C3      20.896197   19.751520   21.454956 C.3        1 MOL1        -0.1409
       9    H6      21.944905   20.057419   21.336368 H          1 MOL1         0.0960
      10    H7      20.310960   20.680557   21.415696 H          1 MOL1         0.0960
      11    C4      20.743564   19.076709   22.843110 C.3        1 MOL1        -0.1409
      12    H8      21.550909   19.442736   23.491382 H          1 MOL1         0.0960
      13    H9      20.894075   17.992208   22.752075 H          1 MOL1         0.0960
      14    C5      19.385018   19.379061   23.526375 C.3        1 MOL1        -0.1409
      15    H10     19.296566   20.459631   23.705122 H          1 MOL1         0.0960
      16    H11     18.558779   19.113090   22.856526 H          1 MOL1         0.0960
      17    C6      19.197251   18.621372   24.861727 C.3        1 MOL1        -0.1450
      18    H12     19.257002   17.539501   24.682967 H          1 MOL1         0.0960
      19    H13     18.188097   18.821230   25.245897 H          1 MOL1         0.0960
      20    C7      20.231288   19.027847   25.928410 C.3        1 MOL1         0.0172
      21    H14     21.238800   18.792436   25.575974 H          1 MOL1         0.0934
      22    H15     20.171439   20.104806   26.107169 H          1 MOL1         0.0934
      23    N1      20.025586   18.321611   27.252876 N.4        1 MOL1        -0.5956
      24    H16     19.104280   18.523921   27.654692 H          1 MOL1         0.3624
      25    H17     20.723619   18.605956   27.948774 H          1 MOL1         0.3624
      26    H18     20.096404   17.303209   27.157921 H          1 MOL1         0.3624
@<TRIPOS>BOND
    1     1     2    1
    2     1     3    1
    3     1     4    1
    4     1     5    1
    5     5     6    1
    6     5     7    1
    7     5     8    1
    8     8     9    1
    9     8    10    1
   10     8    11    1
   11    11    12    1
   12    11    13    1
   13    11    14    1
   14    14    15    1
   15    14    16    1
   16    14    17    1
   17    17    18    1
   18    17    19    1
   19    17    20    1
   20    20    21    1
   21    20    22    1
   22    20    23    1
   23    23    24    1
   24    23    25    1
   25    23    26    1
@<TRIPOS>SUBSTRUCTURE
       1 MOL1            1 RESIDUE      1      MOL     
@<SCITEGIC>MOL_PROPERTY
VM2 Rank
SciTegic.value.IntegerValue
148

@<SCITEGIC>MOL_PROPERTY
Conf_Id
SciTegic.value.IntegerValue
819

@<SCITEGIC>MOL_PROPERTY
Probability
SciTegic.value.DoubleValue
0.01

@<SCITEGIC>MOL_PROPERTY
Sum Probability
SciTegic.value.DoubleValue
99.81

@<SCITEGIC>MOL_PROPERTY
Delta G
SciTegic.value.DoubleValue
3.922

@<SCITEGIC>MOL_PROPERTY
G
SciTegic.value.DoubleValue
52.183

@<SCITEGIC>MOL_PROPERTY
E
SciTegic.value.DoubleValue
19.359

@<SCITEGIC>MOL_PROPERTY
-TS
SciTegic.value.DoubleValue
32.824

@<SCITEGIC>MOL_PROPERTY
U+W
SciTegic.value.DoubleValue
-2.102

@<SCITEGIC>MOL_PROPERTY
U
SciTegic.value.DoubleValue
51.310

@<SCITEGIC>MOL_PROPERTY
W
SciTegic.value.DoubleValue
-53.412

@<SCITEGIC>MOL_PROPERTY
W(PB)
SciTegic.value.DoubleValue
-55.696

@<SCITEGIC>MOL_PROPERTY
W(SA)
SciTegic.value.DoubleValue
2.284

@<SCITEGIC>MOL_PROPERTY
Valence
SciTegic.value.DoubleValue
5.462

@<SCITEGIC>MOL_PROPERTY
Coulomb
SciTegic.value.DoubleValue
45.075

@<SCITEGIC>MOL_PROPERTY
VdW
SciTegic.value.DoubleValue
0.773

@<SCITEGIC>MOL_PROPERTY
VdW6
SciTegic.value.DoubleValue
-7.907

@<SCITEGIC>MOL_PROPERTY
VdW12
SciTegic.value.DoubleValue
8.680

@<SCITEGIC>MOL_PROPERTY
Bond
SciTegic.value.DoubleValue
0.240

@<SCITEGIC>MOL_PROPERTY
Angle
SciTegic.value.DoubleValue
1.238

@<SCITEGIC>MOL_PROPERTY
Pdih
SciTegic.value.DoubleValue
3.984

@<SCITEGIC>MOL_PROPERTY
Idih
SciTegic.value.DoubleValue
0.000

@<SCITEGIC>MOL_PROPERTY
Tether
SciTegic.value.DoubleValue
0.000

@<TRIPOS>MOLECULE
guest-s14_vm2.mol2 : vm2 ligand conformer 149
          26          25           1
SMALL
USER_CHARGES
 
@<TRIPOS>ATOM
       1    C1      18.624823   19.311745   20.679762 C.3        1 MOL1        -0.2400
       2    H1      18.169197   18.347726   20.418994 H          1 MOL1         0.0971
       3    H2      18.274822   19.599205   21.679003 H          1 MOL1         0.0971
       4    H3      18.252073   20.062326   19.970873 H          1 MOL1         0.0971
       5    C2      20.167096   19.231080   20.621243 C.3        1 MOL1        -0.1385
       6    H4      20.599701   20.199211   20.907252 H          1 MOL1         0.0960
       7    H5      20.472952   19.061186   19.579492 H          1 MOL1         0.0960
       8    C3      20.759274   18.099559   21.499689 C.3        1 MOL1        -0.1409
       9    H6      20.400541   17.131935   21.122657 H          1 MOL1         0.0960
      10    H7      21.850335   18.085908   21.370960 H          1 MOL1         0.0960
      11    C4      20.430946   18.198264   23.011663 C.3        1 MOL1        -0.1409
      12    H8      20.894274   17.342968   23.522406 H          1 MOL1         0.0960
      13    H9      19.348407   18.097252   23.151213 H          1 MOL1         0.0960
      14    C5      20.931412   19.511736   23.662414 C.3        1 MOL1        -0.1409
      15    H10     21.973758   19.682621   23.359968 H          1 MOL1         0.0960
      16    H11     20.354819   20.362288   23.274813 H          1 MOL1         0.0960
      17    C6      20.869421   19.521876   25.211130 C.3        1 MOL1        -0.1450
      18    H12     21.332826   20.454215   25.560162 H          1 MOL1         0.0960
      19    H13     21.480584   18.708602   25.624512 H          1 MOL1         0.0960
      20    C7      19.442215   19.460679   25.793947 C.3        1 MOL1         0.0172
      21    H14     19.458554   19.848569   26.816084 H          1 MOL1         0.0934
      22    H15     18.772650   20.091212   25.202850 H          1 MOL1         0.0934
      23    N1      18.855812   18.064061   25.861152 N.4        1 MOL1        -0.5956
      24    H16     19.420329   17.444052   26.451039 H          1 MOL1         0.3624
      25    H17     18.798053   17.631299   24.935247 H          1 MOL1         0.3624
      26    H18     17.908057   18.068322   26.253720 H          1 MOL1         0.3624
@<TRIPOS>BOND
    1     1     2    1
    2     1     3    1
    3     1     4    1
    4     1     5    1
    5     5     6    1
    6     5     7    1
    7     5     8    1
    8     8     9    1
    9     8    10    1
   10     8    11    1
   11    11    12    1
   12    11    13    1
   13    11    14    1
   14    14    15    1
   15    14    16    1
   16    14    17    1
   17    17    18    1
   18    17    19    1
   19    17    20    1
   20    20    21    1
   21    20    22    1
   22    20    23    1
   23    23    24    1
   24    23    25    1
   25    23    26    1
@<TRIPOS>SUBSTRUCTURE
       1 MOL1            1 RESIDUE      1      MOL     
@<SCITEGIC>MOL_PROPERTY
VM2 Rank
SciTegic.value.IntegerValue
149

@<SCITEGIC>MOL_PROPERTY
Conf_Id
SciTegic.value.IntegerValue
191

@<SCITEGIC>MOL_PROPERTY
Probability
SciTegic.value.DoubleValue
0.01

@<SCITEGIC>MOL_PROPERTY
Sum Probability
SciTegic.value.DoubleValue
99.82

@<SCITEGIC>MOL_PROPERTY
Delta G
SciTegic.value.DoubleValue
3.944

@<SCITEGIC>MOL_PROPERTY
G
SciTegic.value.DoubleValue
52.205

@<SCITEGIC>MOL_PROPERTY
E
SciTegic.value.DoubleValue
19.260

@<SCITEGIC>MOL_PROPERTY
-TS
SciTegic.value.DoubleValue
32.945

@<SCITEGIC>MOL_PROPERTY
U+W
SciTegic.value.DoubleValue
-2.202

@<SCITEGIC>MOL_PROPERTY
U
SciTegic.value.DoubleValue
51.945

@<SCITEGIC>MOL_PROPERTY
W
SciTegic.value.DoubleValue
-54.147

@<SCITEGIC>MOL_PROPERTY
W(PB)
SciTegic.value.DoubleValue
-56.366

@<SCITEGIC>MOL_PROPERTY
W(SA)
SciTegic.value.DoubleValue
2.219

@<SCITEGIC>MOL_PROPERTY
Valence
SciTegic.value.DoubleValue
4.646

@<SCITEGIC>MOL_PROPERTY
Coulomb
SciTegic.value.DoubleValue
46.716

@<SCITEGIC>MOL_PROPERTY
VdW
SciTegic.value.DoubleValue
0.583

@<SCITEGIC>MOL_PROPERTY
VdW6
SciTegic.value.DoubleValue
-8.945

@<SCITEGIC>MOL_PROPERTY
VdW12
SciTegic.value.DoubleValue
9.528

@<SCITEGIC>MOL_PROPERTY
Bond
SciTegic.value.DoubleValue
0.266

@<SCITEGIC>MOL_PROPERTY
Angle
SciTegic.value.DoubleValue
1.504

@<SCITEGIC>MOL_PROPERTY
Pdih
SciTegic.value.DoubleValue
2.877

@<SCITEGIC>MOL_PROPERTY
Idih
SciTegic.value.DoubleValue
0.000

@<SCITEGIC>MOL_PROPERTY
Tether
SciTegic.value.DoubleValue
0.000

@<TRIPOS>MOLECULE
guest-s14_vm2.mol2 : vm2 ligand conformer 150
          26          25           1
SMALL
USER_CHARGES
 
@<TRIPOS>ATOM
       1    C1      18.430756   19.357338   21.286175 C.3        1 MOL1        -0.2400
       2    H1      17.872096   18.419747   21.403126 H          1 MOL1         0.0971
       3    H2      18.510497   19.830728   22.270247 H          1 MOL1         0.0971
       4    H3      17.833764   20.022672   20.649163 H          1 MOL1         0.0971
       5    C2      19.815711   19.101018   20.647777 C.3        1 MOL1        -0.1385
       6    H4      20.354763   20.049086   20.513472 H          1 MOL1         0.0960
       7    H5      19.650204   18.702766   19.636888 H          1 MOL1         0.0960
       8    C3      20.691015   18.089843   21.433220 C.3        1 MOL1        -0.1409
       9    H6      20.061900   17.332986   21.919649 H          1 MOL1         0.0960
      10    H7      21.296085   17.534609   20.703187 H          1 MOL1         0.0960
      11    C4      21.676208   18.726918   22.450569 C.3        1 MOL1        -0.1409
      12    H8      22.351070   19.405677   21.911146 H          1 MOL1         0.0960
      13    H9      22.317947   17.933846   22.858481 H          1 MOL1         0.0960
      14    C5      21.035551   19.499472   23.630202 C.3        1 MOL1        -0.1409
      15    H10     21.842898   19.925621   24.241821 H          1 MOL1         0.0960
      16    H11     20.466229   20.357416   23.251245 H          1 MOL1         0.0960
      17    C6      20.142459   18.616901   24.533661 C.3        1 MOL1        -0.1450
      18    H12     20.725525   17.765164   24.908257 H          1 MOL1         0.0960
      19    H13     19.306387   18.204403   23.955886 H          1 MOL1         0.0960
      20    C7      19.584668   19.418009   25.722951 C.3        1 MOL1         0.0172
      21    H14     20.410698   19.815067   26.319160 H          1 MOL1         0.0934
      22    H15     18.991149   20.258928   25.354144 H          1 MOL1         0.0934
      23    N1      18.704632   18.589501   26.636445 N.4        1 MOL1        -0.5956
      24    H16     18.344452   19.142148   27.422087 H          1 MOL1         0.3624
      25    H17     19.212822   17.795151   27.038858 H          1 MOL1         0.3624
      26    H18     17.891422   18.208615   26.141788 H          1 MOL1         0.3624
@<TRIPOS>BOND
    1     1     2    1
    2     1     3    1
    3     1     4    1
    4     1     5    1
    5     5     6    1
    6     5     7    1
    7     5     8    1
    8     8     9    1
    9     8    10    1
   10     8    11    1
   11    11    12    1
   12    11    13    1
   13    11    14    1
   14    14    15    1
   15    14    16    1
   16    14    17    1
   17    17    18    1
   18    17    19    1
   19    17    20    1
   20    20    21    1
   21    20    22    1
   22    20    23    1
   23    23    24    1
   24    23    25    1
   25    23    26    1
@<TRIPOS>SUBSTRUCTURE
       1 MOL1            1 RESIDUE      1      MOL     
@<SCITEGIC>MOL_PROPERTY
VM2 Rank
SciTegic.value.IntegerValue
150

@<SCITEGIC>MOL_PROPERTY
Conf_Id
SciTegic.value.IntegerValue
284

@<SCITEGIC>MOL_PROPERTY
Probability
SciTegic.value.DoubleValue
0.01

@<SCITEGIC>MOL_PROPERTY
Sum Probability
SciTegic.value.DoubleValue
99.83

@<SCITEGIC>MOL_PROPERTY
Delta G
SciTegic.value.DoubleValue
4.050

@<SCITEGIC>MOL_PROPERTY
G
SciTegic.value.DoubleValue
52.311

@<SCITEGIC>MOL_PROPERTY
E
SciTegic.value.DoubleValue
19.139

@<SCITEGIC>MOL_PROPERTY
-TS
SciTegic.value.DoubleValue
33.172

@<SCITEGIC>MOL_PROPERTY
U+W
SciTegic.value.DoubleValue
-2.322

@<SCITEGIC>MOL_PROPERTY
U
SciTegic.value.DoubleValue
51.692

@<SCITEGIC>MOL_PROPERTY
W
SciTegic.value.DoubleValue
-54.014

@<SCITEGIC>MOL_PROPERTY
W(PB)
SciTegic.value.DoubleValue
-56.249

@<SCITEGIC>MOL_PROPERTY
W(SA)
SciTegic.value.DoubleValue
2.234

@<SCITEGIC>MOL_PROPERTY
Valence
SciTegic.value.DoubleValue
5.738

@<SCITEGIC>MOL_PROPERTY
Coulomb
SciTegic.value.DoubleValue
45.543

@<SCITEGIC>MOL_PROPERTY
VdW
SciTegic.value.DoubleValue
0.411

@<SCITEGIC>MOL_PROPERTY
VdW6
SciTegic.value.DoubleValue
-8.566

@<SCITEGIC>MOL_PROPERTY
VdW12
SciTegic.value.DoubleValue
8.978

@<SCITEGIC>MOL_PROPERTY
Bond
SciTegic.value.DoubleValue
0.261

@<SCITEGIC>MOL_PROPERTY
Angle
SciTegic.value.DoubleValue
1.836

@<SCITEGIC>MOL_PROPERTY
Pdih
SciTegic.value.DoubleValue
3.641

@<SCITEGIC>MOL_PROPERTY
Idih
SciTegic.value.DoubleValue
0.000

@<SCITEGIC>MOL_PROPERTY
Tether
SciTegic.value.DoubleValue
0.000

@<TRIPOS>MOLECULE
guest-s14_vm2.mol2 : vm2 ligand conformer 151
          26          25           1
SMALL
USER_CHARGES
 
@<TRIPOS>ATOM
       1    C1      19.694881   19.705375   19.815620 C.3        1 MOL1        -0.2400
       2    H1      19.438688   19.505879   18.767051 H          1 MOL1         0.0971
       3    H2      19.119589   20.582169   20.140072 H          1 MOL1         0.0971
       4    H3      20.760801   19.961287   19.849982 H          1 MOL1         0.0971
       5    C2      19.373914   18.474003   20.693311 C.3        1 MOL1        -0.1385
       6    H4      19.985436   17.619230   20.372117 H          1 MOL1         0.0960
       7    H5      18.327685   18.184552   20.521720 H          1 MOL1         0.0960
       8    C3      19.574961   18.723869   22.207808 C.3        1 MOL1        -0.1409
       9    H6      18.981142   19.594251   22.518721 H          1 MOL1         0.0960
      10    H7      19.172138   17.855780   22.743986 H          1 MOL1         0.0960
      11    C4      21.057456   18.923284   22.609618 C.3        1 MOL1        -0.1409
      12    H8      21.501161   19.714343   21.992177 H          1 MOL1         0.0960
      13    H9      21.621623   18.008015   22.383826 H          1 MOL1         0.0960
      14    C5      21.275888   19.311040   24.095330 C.3        1 MOL1        -0.1409
      15    H10     22.354354   19.465349   24.238426 H          1 MOL1         0.0960
      16    H11     20.811795   20.284495   24.299729 H          1 MOL1         0.0960
      17    C6      20.805054   18.251955   25.127937 C.3        1 MOL1        -0.1450
      18    H12     21.410805   18.349053   26.038732 H          1 MOL1         0.0960
      19    H13     21.004806   17.244025   24.740783 H          1 MOL1         0.0960
      20    C7      19.318485   18.363741   25.527948 C.3        1 MOL1         0.0172
      21    H14     18.680794   18.305858   24.644249 H          1 MOL1         0.0934
      22    H15     19.060060   17.529950   26.186367 H          1 MOL1         0.0934
      23    N1      18.980360   19.645733   26.263428 N.4        1 MOL1        -0.5956
      24    H16     17.990798   19.681580   26.531148 H          1 MOL1         0.3624
      25    H17     19.166474   20.473574   25.689294 H          1 MOL1         0.3624
      26    H18     19.527016   19.745402   27.124931 H          1 MOL1         0.3624
@<TRIPOS>BOND
    1     1     2    1
    2     1     3    1
    3     1     4    1
    4     1     5    1
    5     5     6    1
    6     5     7    1
    7     5     8    1
    8     8     9    1
    9     8    10    1
   10     8    11    1
   11    11    12    1
   12    11    13    1
   13    11    14    1
   14    14    15    1
   15    14    16    1
   16    14    17    1
   17    17    18    1
   18    17    19    1
   19    17    20    1
   20    20    21    1
   21    20    22    1
   22    20    23    1
   23    23    24    1
   24    23    25    1
   25    23    26    1
@<TRIPOS>SUBSTRUCTURE
       1 MOL1            1 RESIDUE      1      MOL     
@<SCITEGIC>MOL_PROPERTY
VM2 Rank
SciTegic.value.IntegerValue
151

@<SCITEGIC>MOL_PROPERTY
Conf_Id
SciTegic.value.IntegerValue
228

@<SCITEGIC>MOL_PROPERTY
Probability
SciTegic.value.DoubleValue
0.01

@<SCITEGIC>MOL_PROPERTY
Sum Probability
SciTegic.value.DoubleValue
99.84

@<SCITEGIC>MOL_PROPERTY
Delta G
SciTegic.value.DoubleValue
4.091

@<SCITEGIC>MOL_PROPERTY
G
SciTegic.value.DoubleValue
52.352

@<SCITEGIC>MOL_PROPERTY
E
SciTegic.value.DoubleValue
19.546

@<SCITEGIC>MOL_PROPERTY
-TS
SciTegic.value.DoubleValue
32.806

@<SCITEGIC>MOL_PROPERTY
U+W
SciTegic.value.DoubleValue
-1.916

@<SCITEGIC>MOL_PROPERTY
U
SciTegic.value.DoubleValue
52.150

@<SCITEGIC>MOL_PROPERTY
W
SciTegic.value.DoubleValue
-54.066

@<SCITEGIC>MOL_PROPERTY
W(PB)
SciTegic.value.DoubleValue
-56.339

@<SCITEGIC>MOL_PROPERTY
W(SA)
SciTegic.value.DoubleValue
2.273

@<SCITEGIC>MOL_PROPERTY
Valence
SciTegic.value.DoubleValue
5.368

@<SCITEGIC>MOL_PROPERTY
Coulomb
SciTegic.value.DoubleValue
45.965

@<SCITEGIC>MOL_PROPERTY
VdW
SciTegic.value.DoubleValue
0.817

@<SCITEGIC>MOL_PROPERTY
VdW6
SciTegic.value.DoubleValue
-8.546

@<SCITEGIC>MOL_PROPERTY
VdW12
SciTegic.value.DoubleValue
9.363

@<SCITEGIC>MOL_PROPERTY
Bond
SciTegic.value.DoubleValue
0.273

@<SCITEGIC>MOL_PROPERTY
Angle
SciTegic.value.DoubleValue
1.632

@<SCITEGIC>MOL_PROPERTY
Pdih
SciTegic.value.DoubleValue
3.463

@<SCITEGIC>MOL_PROPERTY
Idih
SciTegic.value.DoubleValue
0.000

@<SCITEGIC>MOL_PROPERTY
Tether
SciTegic.value.DoubleValue
0.000

@<TRIPOS>MOLECULE
guest-s14_vm2.mol2 : vm2 ligand conformer 152
          26          25           1
SMALL
USER_CHARGES
 
@<TRIPOS>ATOM
       1    C1      20.325491   20.607753   21.349435 C.3        1 MOL1        -0.2400
       2    H1      21.400523   20.748280   21.520941 H          1 MOL1         0.0971
       3    H2      19.977962   21.437714   20.720754 H          1 MOL1         0.0971
       4    H3      19.813556   20.690676   22.313751 H          1 MOL1         0.0971
       5    C2      20.047543   19.254033   20.655505 C.3        1 MOL1        -0.1385
       6    H4      20.525298   19.280318   19.666084 H          1 MOL1         0.0960
       7    H5      18.971379   19.136158   20.467292 H          1 MOL1         0.0960
       8    C3      20.596807   18.027675   21.430043 C.3        1 MOL1        -0.1409
       9    H6      20.903599   17.275601   20.690040 H          1 MOL1         0.0960
      10    H7      21.516233   18.292783   21.968193 H          1 MOL1         0.0960
      11    C4      19.577893   17.342116   22.380458 C.3        1 MOL1        -0.1409
      12    H8      20.035929   16.427816   22.782257 H          1 MOL1         0.0960
      13    H9      18.714757   17.005823   21.789667 H          1 MOL1         0.0960
      14    C5      19.064455   18.198665   23.564315 C.3        1 MOL1        -0.1409
      15    H10     18.517123   19.071110   23.186067 H          1 MOL1         0.0960
      16    H11     18.327889   17.605936   24.124343 H          1 MOL1         0.0960
      17    C6      20.183464   18.643994   24.535026 C.3        1 MOL1        -0.1450
      18    H12     20.917155   19.267498   24.009728 H          1 MOL1         0.0960
      19    H13     20.719941   17.761502   24.908049 H          1 MOL1         0.0960
      20    C7      19.610815   19.435265   25.723841 C.3        1 MOL1         0.0172
      21    H14     19.088141   20.322952   25.357432 H          1 MOL1         0.0934
      22    H15     18.894353   18.814342   26.268433 H          1 MOL1         0.0934
      23    N1      20.674533   19.889500   26.702376 N.4        1 MOL1        -0.5956
      24    H16     20.271443   20.413783   27.486613 H          1 MOL1         0.3624
      25    H17     21.366374   20.501909   26.258097 H          1 MOL1         0.3624
      26    H18     21.186323   19.097505   27.104865 H          1 MOL1         0.3624
@<TRIPOS>BOND
    1     1     2    1
    2     1     3    1
    3     1     4    1
    4     1     5    1
    5     5     6    1
    6     5     7    1
    7     5     8    1
    8     8     9    1
    9     8    10    1
   10     8    11    1
   11    11    12    1
   12    11    13    1
   13    11    14    1
   14    14    15    1
   15    14    16    1
   16    14    17    1
   17    17    18    1
   18    17    19    1
   19    17    20    1
   20    20    21    1
   21    20    22    1
   22    20    23    1
   23    23    24    1
   24    23    25    1
   25    23    26    1
@<TRIPOS>SUBSTRUCTURE
       1 MOL1            1 RESIDUE      1      MOL     
@<SCITEGIC>MOL_PROPERTY
VM2 Rank
SciTegic.value.IntegerValue
152

@<SCITEGIC>MOL_PROPERTY
Conf_Id
SciTegic.value.IntegerValue
531

@<SCITEGIC>MOL_PROPERTY
Probability
SciTegic.value.DoubleValue
0.01

@<SCITEGIC>MOL_PROPERTY
Sum Probability
SciTegic.value.DoubleValue
99.84

@<SCITEGIC>MOL_PROPERTY
Delta G
SciTegic.value.DoubleValue
4.099

@<SCITEGIC>MOL_PROPERTY
G
SciTegic.value.DoubleValue
52.360

@<SCITEGIC>MOL_PROPERTY
E
SciTegic.value.DoubleValue
19.188

@<SCITEGIC>MOL_PROPERTY
-TS
SciTegic.value.DoubleValue
33.172

@<SCITEGIC>MOL_PROPERTY
U+W
SciTegic.value.DoubleValue
-2.274

@<SCITEGIC>MOL_PROPERTY
U
SciTegic.value.DoubleValue
51.692

@<SCITEGIC>MOL_PROPERTY
W
SciTegic.value.DoubleValue
-53.966

@<SCITEGIC>MOL_PROPERTY
W(PB)
SciTegic.value.DoubleValue
-56.182

@<SCITEGIC>MOL_PROPERTY
W(SA)
SciTegic.value.DoubleValue
2.216

@<SCITEGIC>MOL_PROPERTY
Valence
SciTegic.value.DoubleValue
5.738

@<SCITEGIC>MOL_PROPERTY
Coulomb
SciTegic.value.DoubleValue
45.543

@<SCITEGIC>MOL_PROPERTY
VdW
SciTegic.value.DoubleValue
0.411

@<SCITEGIC>MOL_PROPERTY
VdW6
SciTegic.value.DoubleValue
-8.566

@<SCITEGIC>MOL_PROPERTY
VdW12
SciTegic.value.DoubleValue
8.978

@<SCITEGIC>MOL_PROPERTY
Bond
SciTegic.value.DoubleValue
0.261

@<SCITEGIC>MOL_PROPERTY
Angle
SciTegic.value.DoubleValue
1.835

@<SCITEGIC>MOL_PROPERTY
Pdih
SciTegic.value.DoubleValue
3.642

@<SCITEGIC>MOL_PROPERTY
Idih
SciTegic.value.DoubleValue
0.000

@<SCITEGIC>MOL_PROPERTY
Tether
SciTegic.value.DoubleValue
0.000

@<TRIPOS>MOLECULE
guest-s14_vm2.mol2 : vm2 ligand conformer 153
          26          25           1
SMALL
USER_CHARGES
 
@<TRIPOS>ATOM
       1    C1      20.019990   19.947557   20.294687 C.3        1 MOL1        -0.2400
       2    H1      20.259075   19.259216   19.473743 H          1 MOL1         0.0971
       3    H2      18.944795   19.876589   20.501038 H          1 MOL1         0.0971
       4    H3      20.223460   20.968677   19.947219 H          1 MOL1         0.0971
       5    C2      20.859363   19.625816   21.551558 C.3        1 MOL1        -0.1385
       6    H4      20.590857   20.318929   22.358944 H          1 MOL1         0.0960
       7    H5      21.918051   19.818053   21.328402 H          1 MOL1         0.0960
       8    C3      20.713371   18.157460   22.026746 C.3        1 MOL1        -0.1409
       9    H6      21.068003   17.494386   21.225728 H          1 MOL1         0.0960
      10    H7      21.390322   17.975566   22.870577 H          1 MOL1         0.0960
      11    C4      19.273800   17.728309   22.414472 C.3        1 MOL1        -0.1409
      12    H8      19.295948   16.677120   22.733007 H          1 MOL1         0.0960
      13    H9      18.644582   17.744197   21.514660 H          1 MOL1         0.0960
      14    C5      18.578406   18.570854   23.517954 C.3        1 MOL1        -0.1409
      15    H10     18.484297   19.619420   23.205678 H          1 MOL1         0.0960
      16    H11     17.547840   18.200740   23.608635 H          1 MOL1         0.0960
      17    C6      19.235996   18.482598   24.918659 C.3        1 MOL1        -0.1450
      18    H12     19.577580   17.456753   25.110092 H          1 MOL1         0.0960
      19    H13     18.470866   18.700278   25.675728 H          1 MOL1         0.0960
      20    C7      20.397067   19.475720   25.114986 C.3        1 MOL1         0.0172
      21    H14     21.192213   19.274853   24.395070 H          1 MOL1         0.0934
      22    H15     20.037865   20.495459   24.952520 H          1 MOL1         0.0934
      23    N1      21.003006   19.410686   26.501937 N.4        1 MOL1        -0.5956
      24    H16     21.384279   18.481793   26.709028 H          1 MOL1         0.3624
      25    H17     20.313295   19.622709   27.230276 H          1 MOL1         0.3624
      26    H18     21.771308   20.081029   26.614335 H          1 MOL1         0.3624
@<TRIPOS>BOND
    1     1     2    1
    2     1     3    1
    3     1     4    1
    4     1     5    1
    5     5     6    1
    6     5     7    1
    7     5     8    1
    8     8     9    1
    9     8    10    1
   10     8    11    1
   11    11    12    1
   12    11    13    1
   13    11    14    1
   14    14    15    1
   15    14    16    1
   16    14    17    1
   17    17    18    1
   18    17    19    1
   19    17    20    1
   20    20    21    1
   21    20    22    1
   22    20    23    1
   23    23    24    1
   24    23    25    1
   25    23    26    1
@<TRIPOS>SUBSTRUCTURE
       1 MOL1            1 RESIDUE      1      MOL     
@<SCITEGIC>MOL_PROPERTY
VM2 Rank
SciTegic.value.IntegerValue
153

@<SCITEGIC>MOL_PROPERTY
Conf_Id
SciTegic.value.IntegerValue
1338

@<SCITEGIC>MOL_PROPERTY
Probability
SciTegic.value.DoubleValue
0.01

@<SCITEGIC>MOL_PROPERTY
Sum Probability
SciTegic.value.DoubleValue
99.85

@<SCITEGIC>MOL_PROPERTY
Delta G
SciTegic.value.DoubleValue
4.113

@<SCITEGIC>MOL_PROPERTY
G
SciTegic.value.DoubleValue
52.374

@<SCITEGIC>MOL_PROPERTY
E
SciTegic.value.DoubleValue
18.963

@<SCITEGIC>MOL_PROPERTY
-TS
SciTegic.value.DoubleValue
33.411

@<SCITEGIC>MOL_PROPERTY
U+W
SciTegic.value.DoubleValue
-2.499

@<SCITEGIC>MOL_PROPERTY
U
SciTegic.value.DoubleValue
51.820

@<SCITEGIC>MOL_PROPERTY
W
SciTegic.value.DoubleValue
-54.320

@<SCITEGIC>MOL_PROPERTY
W(PB)
SciTegic.value.DoubleValue
-56.541

@<SCITEGIC>MOL_PROPERTY
W(SA)
SciTegic.value.DoubleValue
2.221

@<SCITEGIC>MOL_PROPERTY
Valence
SciTegic.value.DoubleValue
5.497

@<SCITEGIC>MOL_PROPERTY
Coulomb
SciTegic.value.DoubleValue
46.010

@<SCITEGIC>MOL_PROPERTY
VdW
SciTegic.value.DoubleValue
0.313

@<SCITEGIC>MOL_PROPERTY
VdW6
SciTegic.value.DoubleValue
-9.491

@<SCITEGIC>MOL_PROPERTY
VdW12
SciTegic.value.DoubleValue
9.804

@<SCITEGIC>MOL_PROPERTY
Bond
SciTegic.value.DoubleValue
0.285

@<SCITEGIC>MOL_PROPERTY
Angle
SciTegic.value.DoubleValue
2.062

@<SCITEGIC>MOL_PROPERTY
Pdih
SciTegic.value.DoubleValue
3.150

@<SCITEGIC>MOL_PROPERTY
Idih
SciTegic.value.DoubleValue
0.000

@<SCITEGIC>MOL_PROPERTY
Tether
SciTegic.value.DoubleValue
0.000

@<TRIPOS>MOLECULE
guest-s14_vm2.mol2 : vm2 ligand conformer 154
          26          25           1
SMALL
USER_CHARGES
 
@<TRIPOS>ATOM
       1    C1      21.209280   18.953444   20.267600 C.3        1 MOL1        -0.2400
       2    H1      21.799279   19.272527   21.135848 H          1 MOL1         0.0971
       3    H2      21.440182   17.900210   20.061882 H          1 MOL1         0.0971
       4    H3      21.543348   19.545514   19.405805 H          1 MOL1         0.0971
       5    C2      19.695900   19.153638   20.507968 C.3        1 MOL1        -0.1385
       6    H4      19.158600   18.940323   19.573366 H          1 MOL1         0.0960
       7    H5      19.492836   20.208729   20.734074 H          1 MOL1         0.0960
       8    C3      19.121348   18.243404   21.623802 C.3        1 MOL1        -0.1409
       9    H6      18.044589   18.439141   21.721035 H          1 MOL1         0.0960
      10    H7      19.207594   17.196448   21.301898 H          1 MOL1         0.0960
      11    C4      19.788494   18.387709   23.016676 C.3        1 MOL1        -0.1409
      12    H8      20.848164   18.107016   22.954913 H          1 MOL1         0.0960
      13    H9      19.312001   17.659975   23.684153 H          1 MOL1         0.0960
      14    C5      19.651450   19.805140   23.626943 C.3        1 MOL1        -0.1409
      15    H10     20.055317   20.545113   22.924474 H          1 MOL1         0.0960
      16    H11     18.587410   20.048434   23.752411 H          1 MOL1         0.0960
      17    C6      20.387057   19.994295   24.978364 C.3        1 MOL1        -0.1450
      18    H12     20.288330   21.048619   25.269058 H          1 MOL1         0.0960
      19    H13     21.463603   19.815652   24.855936 H          1 MOL1         0.0960
      20    C7      19.836176   19.135883   26.135931 C.3        1 MOL1         0.0172
      21    H14     20.095491   19.611495   27.085688 H          1 MOL1         0.0934
      22    H15     18.746218   19.080153   26.071314 H          1 MOL1         0.0934
      23    N1      20.391294   17.725487   26.183717 N.4        1 MOL1        -0.5956
      24    H16     20.184677   17.205505   25.326440 H          1 MOL1         0.3624
      25    H17     19.999141   17.189082   26.965300 H          1 MOL1         0.3624
      26    H18     21.409716   17.722734   26.301468 H          1 MOL1         0.3624
@<TRIPOS>BOND
    1     1     2    1
    2     1     3    1
    3     1     4    1
    4     1     5    1
    5     5     6    1
    6     5     7    1
    7     5     8    1
    8     8     9    1
    9     8    10    1
   10     8    11    1
   11    11    12    1
   12    11    13    1
   13    11    14    1
   14    14    15    1
   15    14    16    1
   16    14    17    1
   17    17    18    1
   18    17    19    1
   19    17    20    1
   20    20    21    1
   21    20    22    1
   22    20    23    1
   23    23    24    1
   24    23    25    1
   25    23    26    1
@<TRIPOS>SUBSTRUCTURE
       1 MOL1            1 RESIDUE      1      MOL     
@<SCITEGIC>MOL_PROPERTY
VM2 Rank
SciTegic.value.IntegerValue
154

@<SCITEGIC>MOL_PROPERTY
Conf_Id
SciTegic.value.IntegerValue
726

@<SCITEGIC>MOL_PROPERTY
Probability
SciTegic.value.DoubleValue
0.01

@<SCITEGIC>MOL_PROPERTY
Sum Probability
SciTegic.value.DoubleValue
99.86

@<SCITEGIC>MOL_PROPERTY
Delta G
SciTegic.value.DoubleValue
4.163

@<SCITEGIC>MOL_PROPERTY
G
SciTegic.value.DoubleValue
52.424

@<SCITEGIC>MOL_PROPERTY
E
SciTegic.value.DoubleValue
19.579

@<SCITEGIC>MOL_PROPERTY
-TS
SciTegic.value.DoubleValue
32.845

@<SCITEGIC>MOL_PROPERTY
U+W
SciTegic.value.DoubleValue
-1.882

@<SCITEGIC>MOL_PROPERTY
U
SciTegic.value.DoubleValue
52.060

@<SCITEGIC>MOL_PROPERTY
W
SciTegic.value.DoubleValue
-53.943

@<SCITEGIC>MOL_PROPERTY
W(PB)
SciTegic.value.DoubleValue
-56.191

@<SCITEGIC>MOL_PROPERTY
W(SA)
SciTegic.value.DoubleValue
2.248

@<SCITEGIC>MOL_PROPERTY
Valence
SciTegic.value.DoubleValue
4.855

@<SCITEGIC>MOL_PROPERTY
Coulomb
SciTegic.value.DoubleValue
46.487

@<SCITEGIC>MOL_PROPERTY
VdW
SciTegic.value.DoubleValue
0.717

@<SCITEGIC>MOL_PROPERTY
VdW6
SciTegic.value.DoubleValue
-8.768

@<SCITEGIC>MOL_PROPERTY
VdW12
SciTegic.value.DoubleValue
9.485

@<SCITEGIC>MOL_PROPERTY
Bond
SciTegic.value.DoubleValue
0.277

@<SCITEGIC>MOL_PROPERTY
Angle
SciTegic.value.DoubleValue
1.730

@<SCITEGIC>MOL_PROPERTY
Pdih
SciTegic.value.DoubleValue
2.848

@<SCITEGIC>MOL_PROPERTY
Idih
SciTegic.value.DoubleValue
0.000

@<SCITEGIC>MOL_PROPERTY
Tether
SciTegic.value.DoubleValue
0.000

@<TRIPOS>MOLECULE
guest-s14_vm2.mol2 : vm2 ligand conformer 155
          26          25           1
SMALL
USER_CHARGES
 
@<TRIPOS>ATOM
       1    C1      19.652631   17.927935   20.215695 C.3        1 MOL1        -0.2400
       2    H1      19.087081   17.485755   21.045392 H          1 MOL1         0.0971
       3    H2      19.017617   17.881607   19.321576 H          1 MOL1         0.0971
       4    H3      20.538270   17.306030   20.031808 H          1 MOL1         0.0971
       5    C2      20.053377   19.389106   20.519930 C.3        1 MOL1        -0.1385
       6    H4      19.154129   19.985575   20.722794 H          1 MOL1         0.0960
       7    H5      20.504196   19.826723   19.618304 H          1 MOL1         0.0960
       8    C3      21.063307   19.522694   21.688653 C.3        1 MOL1        -0.1409
       9    H6      22.005523   19.039605   21.395342 H          1 MOL1         0.0960
      10    H7      21.302954   20.585626   21.829801 H          1 MOL1         0.0960
      11    C4      20.603388   18.924585   23.043918 C.3        1 MOL1        -0.1409
      12    H8      21.427995   19.054068   23.754850 H          1 MOL1         0.0960
      13    H9      20.446888   17.842670   22.941602 H          1 MOL1         0.0960
      14    C5      19.327567   19.591822   23.616103 C.3        1 MOL1        -0.1409
      15    H10     19.517154   20.661025   23.783371 H          1 MOL1         0.0960
      16    H11     18.521929   19.534912   22.873243 H          1 MOL1         0.0960
      17    C6      18.801468   18.949847   24.925427 C.3        1 MOL1        -0.1450
      18    H12     18.547310   17.894659   24.758587 H          1 MOL1         0.0960
      19    H13     17.858897   19.448317   25.187981 H          1 MOL1         0.0960
      20    C7      19.752610   19.080796   26.133105 C.3        1 MOL1         0.0172
      21    H14     20.235912   20.061388   26.121008 H          1 MOL1         0.0934
      22    H15     19.169718   19.001601   27.054763 H          1 MOL1         0.0934
      23    N1      20.826650   18.012215   26.198170 N.4        1 MOL1        -0.5956
      24    H16     21.425278   18.022696   25.367788 H          1 MOL1         0.3624
      25    H17     20.422726   17.072547   26.268365 H          1 MOL1         0.3624
      26    H18     21.437109   18.136201   27.013251 H          1 MOL1         0.3624
@<TRIPOS>BOND
    1     1     2    1
    2     1     3    1
    3     1     4    1
    4     1     5    1
    5     5     6    1
    6     5     7    1
    7     5     8    1
    8     8     9    1
    9     8    10    1
   10     8    11    1
   11    11    12    1
   12    11    13    1
   13    11    14    1
   14    14    15    1
   15    14    16    1
   16    14    17    1
   17    17    18    1
   18    17    19    1
   19    17    20    1
   20    20    21    1
   21    20    22    1
   22    20    23    1
   23    23    24    1
   24    23    25    1
   25    23    26    1
@<TRIPOS>SUBSTRUCTURE
       1 MOL1            1 RESIDUE      1      MOL     
@<SCITEGIC>MOL_PROPERTY
VM2 Rank
SciTegic.value.IntegerValue
155

@<SCITEGIC>MOL_PROPERTY
Conf_Id
SciTegic.value.IntegerValue
1610

@<SCITEGIC>MOL_PROPERTY
Probability
SciTegic.value.DoubleValue
0.01

@<SCITEGIC>MOL_PROPERTY
Sum Probability
SciTegic.value.DoubleValue
99.86

@<SCITEGIC>MOL_PROPERTY
Delta G
SciTegic.value.DoubleValue
4.175

@<SCITEGIC>MOL_PROPERTY
G
SciTegic.value.DoubleValue
52.436

@<SCITEGIC>MOL_PROPERTY
E
SciTegic.value.DoubleValue
19.591

@<SCITEGIC>MOL_PROPERTY
-TS
SciTegic.value.DoubleValue
32.845

@<SCITEGIC>MOL_PROPERTY
U+W
SciTegic.value.DoubleValue
-1.871

@<SCITEGIC>MOL_PROPERTY
U
SciTegic.value.DoubleValue
52.060

@<SCITEGIC>MOL_PROPERTY
W
SciTegic.value.DoubleValue
-53.930

@<SCITEGIC>MOL_PROPERTY
W(PB)
SciTegic.value.DoubleValue
-56.175

@<SCITEGIC>MOL_PROPERTY
W(SA)
SciTegic.value.DoubleValue
2.245

@<SCITEGIC>MOL_PROPERTY
Valence
SciTegic.value.DoubleValue
4.855

@<SCITEGIC>MOL_PROPERTY
Coulomb
SciTegic.value.DoubleValue
46.488

@<SCITEGIC>MOL_PROPERTY
VdW
SciTegic.value.DoubleValue
0.717

@<SCITEGIC>MOL_PROPERTY
VdW6
SciTegic.value.DoubleValue
-8.768

@<SCITEGIC>MOL_PROPERTY
VdW12
SciTegic.value.DoubleValue
9.485

@<SCITEGIC>MOL_PROPERTY
Bond
SciTegic.value.DoubleValue
0.277

@<SCITEGIC>MOL_PROPERTY
Angle
SciTegic.value.DoubleValue
1.730

@<SCITEGIC>MOL_PROPERTY
Pdih
SciTegic.value.DoubleValue
2.847

@<SCITEGIC>MOL_PROPERTY
Idih
SciTegic.value.DoubleValue
0.000

@<SCITEGIC>MOL_PROPERTY
Tether
SciTegic.value.DoubleValue
0.000

@<TRIPOS>MOLECULE
guest-s14_vm2.mol2 : vm2 ligand conformer 156
          26          25           1
SMALL
USER_CHARGES
 
@<TRIPOS>ATOM
       1    C1      20.973796   17.700310   20.966169 C.3        1 MOL1        -0.2400
       2    H1      20.458921   17.399473   20.044587 H          1 MOL1         0.0971
       3    H2      22.014340   17.358091   20.895905 H          1 MOL1         0.0971
       4    H3      20.506590   17.171193   21.805290 H          1 MOL1         0.0971
       5    C2      20.919382   19.233725   21.154065 C.3        1 MOL1        -0.1385
       6    H4      21.466013   19.706380   20.326157 H          1 MOL1         0.0960
       7    H5      21.454555   19.525945   22.066316 H          1 MOL1         0.0960
       8    C3      19.477933   19.798393   21.174184 C.3        1 MOL1        -0.1409
       9    H6      19.529041   20.894723   21.224664 H          1 MOL1         0.0960
      10    H7      18.999625   19.568123   20.212226 H          1 MOL1         0.0960
      11    C4      18.559353   19.286030   22.316398 C.3        1 MOL1        -0.1409
      12    H8      18.421053   18.199049   22.246997 H          1 MOL1         0.0960
      13    H9      17.562286   19.714914   22.145364 H          1 MOL1         0.0960
      14    C5      19.008029   19.689739   23.745754 C.3        1 MOL1        -0.1409
      15    H10     19.547020   20.646782   23.716619 H          1 MOL1         0.0960
      16    H11     18.108330   19.867734   24.351262 H          1 MOL1         0.0960
      17    C6      19.859787   18.614505   24.461675 C.3        1 MOL1        -0.1450
      18    H12     20.779732   18.414677   23.902096 H          1 MOL1         0.0960
      19    H13     19.300185   17.670706   24.504731 H          1 MOL1         0.0960
      20    C7      20.227349   19.052641   25.890183 C.3        1 MOL1         0.0172
      21    H14     20.799445   19.983680   25.853758 H          1 MOL1         0.0934
      22    H15     19.315575   19.231443   26.466505 H          1 MOL1         0.0934
      23    N1      21.055370   18.023657   26.632572 N.4        1 MOL1        -0.5956
      24    H16     21.942195   17.830270   26.155863 H          1 MOL1         0.3624
      25    H17     20.561005   17.130252   26.725385 H          1 MOL1         0.3624
      26    H18     21.288458   18.335599   27.581665 H          1 MOL1         0.3624
@<TRIPOS>BOND
    1     1     2    1
    2     1     3    1
    3     1     4    1
    4     1     5    1
    5     5     6    1
    6     5     7    1
    7     5     8    1
    8     8     9    1
    9     8    10    1
   10     8    11    1
   11    11    12    1
   12    11    13    1
   13    11    14    1
   14    14    15    1
   15    14    16    1
   16    14    17    1
   17    17    18    1
   18    17    19    1
   19    17    20    1
   20    20    21    1
   21    20    22    1
   22    20    23    1
   23    23    24    1
   24    23    25    1
   25    23    26    1
@<TRIPOS>SUBSTRUCTURE
       1 MOL1            1 RESIDUE      1      MOL     
@<SCITEGIC>MOL_PROPERTY
VM2 Rank
SciTegic.value.IntegerValue
156

@<SCITEGIC>MOL_PROPERTY
Conf_Id
SciTegic.value.IntegerValue
1100

@<SCITEGIC>MOL_PROPERTY
Probability
SciTegic.value.DoubleValue
0.01

@<SCITEGIC>MOL_PROPERTY
Sum Probability
SciTegic.value.DoubleValue
99.87

@<SCITEGIC>MOL_PROPERTY
Delta G
SciTegic.value.DoubleValue
4.177

@<SCITEGIC>MOL_PROPERTY
G
SciTegic.value.DoubleValue
52.438

@<SCITEGIC>MOL_PROPERTY
E
SciTegic.value.DoubleValue
19.277

@<SCITEGIC>MOL_PROPERTY
-TS
SciTegic.value.DoubleValue
33.161

@<SCITEGIC>MOL_PROPERTY
U+W
SciTegic.value.DoubleValue
-2.185

@<SCITEGIC>MOL_PROPERTY
U
SciTegic.value.DoubleValue
51.714

@<SCITEGIC>MOL_PROPERTY
W
SciTegic.value.DoubleValue
-53.899

@<SCITEGIC>MOL_PROPERTY
W(PB)
SciTegic.value.DoubleValue
-56.159

@<SCITEGIC>MOL_PROPERTY
W(SA)
SciTegic.value.DoubleValue
2.260

@<SCITEGIC>MOL_PROPERTY
Valence
SciTegic.value.DoubleValue
5.770

@<SCITEGIC>MOL_PROPERTY
Coulomb
SciTegic.value.DoubleValue
45.469

@<SCITEGIC>MOL_PROPERTY
VdW
SciTegic.value.DoubleValue
0.475

@<SCITEGIC>MOL_PROPERTY
VdW6
SciTegic.value.DoubleValue
-8.435

@<SCITEGIC>MOL_PROPERTY
VdW12
SciTegic.value.DoubleValue
8.910

@<SCITEGIC>MOL_PROPERTY
Bond
SciTegic.value.DoubleValue
0.260

@<SCITEGIC>MOL_PROPERTY
Angle
SciTegic.value.DoubleValue
1.769

@<SCITEGIC>MOL_PROPERTY
Pdih
SciTegic.value.DoubleValue
3.741

@<SCITEGIC>MOL_PROPERTY
Idih
SciTegic.value.DoubleValue
0.000

@<SCITEGIC>MOL_PROPERTY
Tether
SciTegic.value.DoubleValue
0.000

@<TRIPOS>MOLECULE
guest-s14_vm2.mol2 : vm2 ligand conformer 157
          26          25           1
SMALL
USER_CHARGES
 
@<TRIPOS>ATOM
       1    C1      19.894461   20.012800   20.269337 C.3        1 MOL1        -0.2400
       2    H1      18.819989   20.169034   20.430352 H          1 MOL1         0.0971
       3    H2      20.448718   20.595052   21.015780 H          1 MOL1         0.0971
       4    H3      20.148645   20.419220   19.281877 H          1 MOL1         0.0971
       5    C2      20.257015   18.513625   20.345288 C.3        1 MOL1        -0.1385
       6    H4      21.344221   18.395888   20.236465 H          1 MOL1         0.0960
       7    H5      19.807785   17.998538   19.484693 H          1 MOL1         0.0960
       8    C3      19.785586   17.807489   21.642188 C.3        1 MOL1        -0.1409
       9    H6      18.689179   17.831911   21.708543 H          1 MOL1         0.0960
      10    H7      20.053039   16.745242   21.555513 H          1 MOL1         0.0960
      11    C4      20.417168   18.360049   22.946532 C.3        1 MOL1        -0.1409
      12    H8      21.409149   18.781892   22.734264 H          1 MOL1         0.0960
      13    H9      20.585305   17.516011   23.628567 H          1 MOL1         0.0960
      14    C5      19.526811   19.407167   23.663852 C.3        1 MOL1        -0.1409
      15    H10     19.266181   20.216020   22.971128 H          1 MOL1         0.0960
      16    H11     18.574487   18.943592   23.953713 H          1 MOL1         0.0960
      17    C6      20.206317   20.031873   24.908187 C.3        1 MOL1        -0.1450
      18    H12     19.539832   20.787501   25.344770 H          1 MOL1         0.0960
      19    H13     21.111938   20.567700   24.594212 H          1 MOL1         0.0960
      20    C7      20.589638   19.008332   25.996204 C.3        1 MOL1         0.0172
      21    H14     21.288476   18.275405   25.584966 H          1 MOL1         0.0934
      22    H15     21.086896   19.525138   26.821511 H          1 MOL1         0.0934
      23    N1      19.404003   18.257665   26.569412 N.4        1 MOL1        -0.5956
      24    H16     19.689442   17.590400   27.294278 H          1 MOL1         0.3624
      25    H17     18.909599   17.725134   25.846954 H          1 MOL1         0.3624
      26    H18     18.722946   18.892801   26.997940 H          1 MOL1         0.3624
@<TRIPOS>BOND
    1     1     2    1
    2     1     3    1
    3     1     4    1
    4     1     5    1
    5     5     6    1
    6     5     7    1
    7     5     8    1
    8     8     9    1
    9     8    10    1
   10     8    11    1
   11    11    12    1
   12    11    13    1
   13    11    14    1
   14    14    15    1
   15    14    16    1
   16    14    17    1
   17    17    18    1
   18    17    19    1
   19    17    20    1
   20    20    21    1
   21    20    22    1
   22    20    23    1
   23    23    24    1
   24    23    25    1
   25    23    26    1
@<TRIPOS>SUBSTRUCTURE
       1 MOL1            1 RESIDUE      1      MOL     
@<SCITEGIC>MOL_PROPERTY
VM2 Rank
SciTegic.value.IntegerValue
157

@<SCITEGIC>MOL_PROPERTY
Conf_Id
SciTegic.value.IntegerValue
541

@<SCITEGIC>MOL_PROPERTY
Probability
SciTegic.value.DoubleValue
0.01

@<SCITEGIC>MOL_PROPERTY
Sum Probability
SciTegic.value.DoubleValue
99.88

@<SCITEGIC>MOL_PROPERTY
Delta G
SciTegic.value.DoubleValue
4.192

@<SCITEGIC>MOL_PROPERTY
G
SciTegic.value.DoubleValue
52.453

@<SCITEGIC>MOL_PROPERTY
E
SciTegic.value.DoubleValue
19.435

@<SCITEGIC>MOL_PROPERTY
-TS
SciTegic.value.DoubleValue
33.018

@<SCITEGIC>MOL_PROPERTY
U+W
SciTegic.value.DoubleValue
-2.027

@<SCITEGIC>MOL_PROPERTY
U
SciTegic.value.DoubleValue
51.894

@<SCITEGIC>MOL_PROPERTY
W
SciTegic.value.DoubleValue
-53.921

@<SCITEGIC>MOL_PROPERTY
W(PB)
SciTegic.value.DoubleValue
-56.155

@<SCITEGIC>MOL_PROPERTY
W(SA)
SciTegic.value.DoubleValue
2.234

@<SCITEGIC>MOL_PROPERTY
Valence
SciTegic.value.DoubleValue
5.549

@<SCITEGIC>MOL_PROPERTY
Coulomb
SciTegic.value.DoubleValue
45.566

@<SCITEGIC>MOL_PROPERTY
VdW
SciTegic.value.DoubleValue
0.779

@<SCITEGIC>MOL_PROPERTY
VdW6
SciTegic.value.DoubleValue
-8.637

@<SCITEGIC>MOL_PROPERTY
VdW12
SciTegic.value.DoubleValue
9.416

@<SCITEGIC>MOL_PROPERTY
Bond
SciTegic.value.DoubleValue
0.264

@<SCITEGIC>MOL_PROPERTY
Angle
SciTegic.value.DoubleValue
1.348

@<SCITEGIC>MOL_PROPERTY
Pdih
SciTegic.value.DoubleValue
3.937

@<SCITEGIC>MOL_PROPERTY
Idih
SciTegic.value.DoubleValue
0.000

@<SCITEGIC>MOL_PROPERTY
Tether
SciTegic.value.DoubleValue
0.000

@<TRIPOS>MOLECULE
guest-s14_vm2.mol2 : vm2 ligand conformer 158
          26          25           1
SMALL
USER_CHARGES
 
@<TRIPOS>ATOM
       1    C1      19.197034   19.552903   20.246143 C.3        1 MOL1        -0.2400
       2    H1      19.468365   20.596389   20.451917 H          1 MOL1         0.0971
       3    H2      18.769699   19.509965   19.235991 H          1 MOL1         0.0971
       4    H3      18.409863   19.250842   20.947940 H          1 MOL1         0.0971
       5    C2      20.427811   18.626123   20.351062 C.3        1 MOL1        -0.1385
       6    H4      21.117340   18.861735   19.528394 H          1 MOL1         0.0960
       7    H5      20.113705   17.584540   20.195613 H          1 MOL1         0.0960
       8    C3      21.201371   18.740849   21.689442 C.3        1 MOL1        -0.1409
       9    H6      22.075812   18.078763   21.623048 H          1 MOL1         0.0960
      10    H7      21.606755   19.755362   21.805789 H          1 MOL1         0.0960
      11    C4      20.385119   18.339005   22.945540 C.3        1 MOL1        -0.1409
      12    H8      21.062460   17.830659   23.644563 H          1 MOL1         0.0960
      13    H9      19.617661   17.600998   22.674637 H          1 MOL1         0.0960
      14    C5      19.740177   19.547922   23.671009 C.3        1 MOL1        -0.1409
      15    H10     20.526780   20.230527   24.019075 H          1 MOL1         0.0960
      16    H11     19.132225   20.127814   22.966623 H          1 MOL1         0.0960
      17    C6      18.841291   19.132332   24.862497 C.3        1 MOL1        -0.1450
      18    H12     18.007728   18.522036   24.490272 H          1 MOL1         0.0960
      19    H13     18.389240   20.029235   25.306340 H          1 MOL1         0.0960
      20    C7      19.579647   18.342646   25.962304 C.3        1 MOL1         0.0172
      21    H14     18.871065   18.064683   26.747247 H          1 MOL1         0.0934
      22    H15     19.996936   17.424225   25.541538 H          1 MOL1         0.0934
      23    N1      20.708549   19.117220   26.613003 N.4        1 MOL1        -0.5956
      24    H16     20.373245   19.980117   27.053288 H          1 MOL1         0.3624
      25    H17     21.425595   19.383264   25.931067 H          1 MOL1         0.3624
      26    H18     21.175274   18.569252   27.343788 H          1 MOL1         0.3624
@<TRIPOS>BOND
    1     1     2    1
    2     1     3    1
    3     1     4    1
    4     1     5    1
    5     5     6    1
    6     5     7    1
    7     5     8    1
    8     8     9    1
    9     8    10    1
   10     8    11    1
   11    11    12    1
   12    11    13    1
   13    11    14    1
   14    14    15    1
   15    14    16    1
   16    14    17    1
   17    17    18    1
   18    17    19    1
   19    17    20    1
   20    20    21    1
   21    20    22    1
   22    20    23    1
   23    23    24    1
   24    23    25    1
   25    23    26    1
@<TRIPOS>SUBSTRUCTURE
       1 MOL1            1 RESIDUE      1      MOL     
@<SCITEGIC>MOL_PROPERTY
VM2 Rank
SciTegic.value.IntegerValue
158

@<SCITEGIC>MOL_PROPERTY
Conf_Id
SciTegic.value.IntegerValue
1344

@<SCITEGIC>MOL_PROPERTY
Probability
SciTegic.value.DoubleValue
0.01

@<SCITEGIC>MOL_PROPERTY
Sum Probability
SciTegic.value.DoubleValue
99.88

@<SCITEGIC>MOL_PROPERTY
Delta G
SciTegic.value.DoubleValue
4.218

@<SCITEGIC>MOL_PROPERTY
G
SciTegic.value.DoubleValue
52.480

@<SCITEGIC>MOL_PROPERTY
E
SciTegic.value.DoubleValue
19.461

@<SCITEGIC>MOL_PROPERTY
-TS
SciTegic.value.DoubleValue
33.019

@<SCITEGIC>MOL_PROPERTY
U+W
SciTegic.value.DoubleValue
-2.001

@<SCITEGIC>MOL_PROPERTY
U
SciTegic.value.DoubleValue
51.894

@<SCITEGIC>MOL_PROPERTY
W
SciTegic.value.DoubleValue
-53.895

@<SCITEGIC>MOL_PROPERTY
W(PB)
SciTegic.value.DoubleValue
-56.142

@<SCITEGIC>MOL_PROPERTY
W(SA)
SciTegic.value.DoubleValue
2.247

@<SCITEGIC>MOL_PROPERTY
Valence
SciTegic.value.DoubleValue
5.549

@<SCITEGIC>MOL_PROPERTY
Coulomb
SciTegic.value.DoubleValue
45.566

@<SCITEGIC>MOL_PROPERTY
VdW
SciTegic.value.DoubleValue
0.779

@<SCITEGIC>MOL_PROPERTY
VdW6
SciTegic.value.DoubleValue
-8.638

@<SCITEGIC>MOL_PROPERTY
VdW12
SciTegic.value.DoubleValue
9.416

@<SCITEGIC>MOL_PROPERTY
Bond
SciTegic.value.DoubleValue
0.264

@<SCITEGIC>MOL_PROPERTY
Angle
SciTegic.value.DoubleValue
1.348

@<SCITEGIC>MOL_PROPERTY
Pdih
SciTegic.value.DoubleValue
3.938

@<SCITEGIC>MOL_PROPERTY
Idih
SciTegic.value.DoubleValue
0.000

@<SCITEGIC>MOL_PROPERTY
Tether
SciTegic.value.DoubleValue
0.000

@<TRIPOS>MOLECULE
guest-s14_vm2.mol2 : vm2 ligand conformer 159
          26          25           1
SMALL
USER_CHARGES
 
@<TRIPOS>ATOM
       1    C1      18.955916   18.667170   20.012605 C.3        1 MOL1        -0.2400
       2    H1      18.064905   18.051425   19.833774 H          1 MOL1         0.0971
       3    H2      18.667663   19.719748   19.893420 H          1 MOL1         0.0971
       4    H3      19.693902   18.424776   19.236821 H          1 MOL1         0.0971
       5    C2      19.525639   18.404866   21.422772 C.3        1 MOL1        -0.1385
       6    H4      19.774412   17.338870   21.519630 H          1 MOL1         0.0960
       7    H5      18.746334   18.614636   22.163893 H          1 MOL1         0.0960
       8    C3      20.786283   19.260374   21.695117 C.3        1 MOL1        -0.1409
       9    H6      21.524318   19.034067   20.913101 H          1 MOL1         0.0960
      10    H7      20.552854   20.328740   21.589878 H          1 MOL1         0.0960
      11    C4      21.445049   18.990965   23.073652 C.3        1 MOL1        -0.1409
      12    H8      22.529578   19.123521   22.956821 H          1 MOL1         0.0960
      13    H9      21.311803   17.940517   23.364535 H          1 MOL1         0.0960
      14    C5      20.989051   19.941989   24.213152 C.3        1 MOL1        -0.1409
      15    H10     21.616139   19.756189   25.095417 H          1 MOL1         0.0960
      16    H11     21.199360   20.979252   23.918252 H          1 MOL1         0.0960
      17    C6      19.499094   19.833507   24.624658 C.3        1 MOL1        -0.1450
      18    H12     18.863084   20.178435   23.800301 H          1 MOL1         0.0960
      19    H13     19.305633   20.523936   25.456259 H          1 MOL1         0.0960
      20    C7      19.068706   18.413106   25.043463 C.3        1 MOL1         0.0172
      21    H14     18.001251   18.411431   25.280109 H          1 MOL1         0.0934
      22    H15     19.235563   17.717642   24.217051 H          1 MOL1         0.0934
      23    N1      19.811261   17.887022   26.255579 N.4        1 MOL1        -0.5956
      24    H16     19.501813   16.943604   26.512992 H          1 MOL1         0.3624
      25    H17     19.669180   18.483754   27.076882 H          1 MOL1         0.3624
      26    H18     20.820823   17.838324   26.087349 H          1 MOL1         0.3624
@<TRIPOS>BOND
    1     1     2    1
    2     1     3    1
    3     1     4    1
    4     1     5    1
    5     5     6    1
    6     5     7    1
    7     5     8    1
    8     8     9    1
    9     8    10    1
   10     8    11    1
   11    11    12    1
   12    11    13    1
   13    11    14    1
   14    14    15    1
   15    14    16    1
   16    14    17    1
   17    17    18    1
   18    17    19    1
   19    17    20    1
   20    20    21    1
   21    20    22    1
   22    20    23    1
   23    23    24    1
   24    23    25    1
   25    23    26    1
@<TRIPOS>SUBSTRUCTURE
       1 MOL1            1 RESIDUE      1      MOL     
@<SCITEGIC>MOL_PROPERTY
VM2 Rank
SciTegic.value.IntegerValue
159

@<SCITEGIC>MOL_PROPERTY
Conf_Id
SciTegic.value.IntegerValue
1105

@<SCITEGIC>MOL_PROPERTY
Probability
SciTegic.value.DoubleValue
0.01

@<SCITEGIC>MOL_PROPERTY
Sum Probability
SciTegic.value.DoubleValue
99.89

@<SCITEGIC>MOL_PROPERTY
Delta G
SciTegic.value.DoubleValue
4.278

@<SCITEGIC>MOL_PROPERTY
G
SciTegic.value.DoubleValue
52.539

@<SCITEGIC>MOL_PROPERTY
E
SciTegic.value.DoubleValue
19.309

@<SCITEGIC>MOL_PROPERTY
-TS
SciTegic.value.DoubleValue
33.230

@<SCITEGIC>MOL_PROPERTY
U+W
SciTegic.value.DoubleValue
-2.152

@<SCITEGIC>MOL_PROPERTY
U
SciTegic.value.DoubleValue
52.068

@<SCITEGIC>MOL_PROPERTY
W
SciTegic.value.DoubleValue
-54.221

@<SCITEGIC>MOL_PROPERTY
W(PB)
SciTegic.value.DoubleValue
-56.446

@<SCITEGIC>MOL_PROPERTY
W(SA)
SciTegic.value.DoubleValue
2.225

@<SCITEGIC>MOL_PROPERTY
Valence
SciTegic.value.DoubleValue
5.586

@<SCITEGIC>MOL_PROPERTY
Coulomb
SciTegic.value.DoubleValue
46.106

@<SCITEGIC>MOL_PROPERTY
VdW
SciTegic.value.DoubleValue
0.377

@<SCITEGIC>MOL_PROPERTY
VdW6
SciTegic.value.DoubleValue
-9.203

@<SCITEGIC>MOL_PROPERTY
VdW12
SciTegic.value.DoubleValue
9.580

@<SCITEGIC>MOL_PROPERTY
Bond
SciTegic.value.DoubleValue
0.268

@<SCITEGIC>MOL_PROPERTY
Angle
SciTegic.value.DoubleValue
1.680

@<SCITEGIC>MOL_PROPERTY
Pdih
SciTegic.value.DoubleValue
3.637

@<SCITEGIC>MOL_PROPERTY
Idih
SciTegic.value.DoubleValue
0.000

@<SCITEGIC>MOL_PROPERTY
Tether
SciTegic.value.DoubleValue
0.000

@<TRIPOS>MOLECULE
guest-s14_vm2.mol2 : vm2 ligand conformer 160
          26          25           1
SMALL
USER_CHARGES
 
@<TRIPOS>ATOM
       1    C1      19.643735   20.058475   20.279237 C.3        1 MOL1        -0.2400
       2    H1      18.689520   19.523988   20.364256 H          1 MOL1         0.0971
       3    H2      19.574499   20.982365   20.867989 H          1 MOL1         0.0971
       4    H3      19.771215   20.340320   19.226044 H          1 MOL1         0.0971
       5    C2      20.827832   19.185185   20.752498 C.3        1 MOL1        -0.1385
       6    H4      21.766450   19.715137   20.538160 H          1 MOL1         0.0960
       7    H5      20.859309   18.255748   20.166925 H          1 MOL1         0.0960
       8    C3      20.778741   18.852580   22.263189 C.3        1 MOL1        -0.1409
       9    H6      21.706093   18.328406   22.531446 H          1 MOL1         0.0960
      10    H7      20.776527   19.789929   22.830045 H          1 MOL1         0.0960
      11    C4      19.565978   17.969397   22.655399 C.3        1 MOL1        -0.1409
      12    H8      19.558087   17.091565   21.994625 H          1 MOL1         0.0960
      13    H9      18.623201   18.499555   22.467453 H          1 MOL1         0.0960
      14    C5      19.596703   17.465351   24.122309 C.3        1 MOL1        -0.1409
      15    H10     19.044049   16.516418   24.161295 H          1 MOL1         0.0960
      16    H11     20.623419   17.215466   24.420860 H          1 MOL1         0.0960
      17    C6      18.941179   18.419753   25.156051 C.3        1 MOL1        -0.1450
      18    H12     18.906323   17.916413   26.131365 H          1 MOL1         0.0960
      19    H13     17.895656   18.597434   24.871393 H          1 MOL1         0.0960
      20    C7      19.641755   19.780574   25.331364 C.3        1 MOL1         0.0172
      21    H14     19.614889   20.335323   24.391029 H          1 MOL1         0.0934
      22    H15     19.106072   20.367908   26.082064 H          1 MOL1         0.0934
      23    N1      21.085078   19.667686   25.780952 N.4        1 MOL1        -0.5956
      24    H16     21.164411   19.186802   26.682850 H          1 MOL1         0.3624
      25    H17     21.523117   20.588436   25.892624 H          1 MOL1         0.3624
      26    H18     21.649061   19.142117   25.106312 H          1 MOL1         0.3624
@<TRIPOS>BOND
    1     1     2    1
    2     1     3    1
    3     1     4    1
    4     1     5    1
    5     5     6    1
    6     5     7    1
    7     5     8    1
    8     8     9    1
    9     8    10    1
   10     8    11    1
   11    11    12    1
   12    11    13    1
   13    11    14    1
   14    14    15    1
   15    14    16    1
   16    14    17    1
   17    17    18    1
   18    17    19    1
   19    17    20    1
   20    20    21    1
   21    20    22    1
   22    20    23    1
   23    23    24    1
   24    23    25    1
   25    23    26    1
@<TRIPOS>SUBSTRUCTURE
       1 MOL1            1 RESIDUE      1      MOL     
@<SCITEGIC>MOL_PROPERTY
VM2 Rank
SciTegic.value.IntegerValue
160

@<SCITEGIC>MOL_PROPERTY
Conf_Id
SciTegic.value.IntegerValue
569

@<SCITEGIC>MOL_PROPERTY
Probability
SciTegic.value.DoubleValue
0.01

@<SCITEGIC>MOL_PROPERTY
Sum Probability
SciTegic.value.DoubleValue
99.89

@<SCITEGIC>MOL_PROPERTY
Delta G
SciTegic.value.DoubleValue
4.287

@<SCITEGIC>MOL_PROPERTY
G
SciTegic.value.DoubleValue
52.548

@<SCITEGIC>MOL_PROPERTY
E
SciTegic.value.DoubleValue
19.599

@<SCITEGIC>MOL_PROPERTY
-TS
SciTegic.value.DoubleValue
32.949

@<SCITEGIC>MOL_PROPERTY
U+W
SciTegic.value.DoubleValue
-1.863

@<SCITEGIC>MOL_PROPERTY
U
SciTegic.value.DoubleValue
52.361

@<SCITEGIC>MOL_PROPERTY
W
SciTegic.value.DoubleValue
-54.224

@<SCITEGIC>MOL_PROPERTY
W(PB)
SciTegic.value.DoubleValue
-56.455

@<SCITEGIC>MOL_PROPERTY
W(SA)
SciTegic.value.DoubleValue
2.231

@<SCITEGIC>MOL_PROPERTY
Valence
SciTegic.value.DoubleValue
5.334

@<SCITEGIC>MOL_PROPERTY
Coulomb
SciTegic.value.DoubleValue
46.481

@<SCITEGIC>MOL_PROPERTY
VdW
SciTegic.value.DoubleValue
0.546

@<SCITEGIC>MOL_PROPERTY
VdW6
SciTegic.value.DoubleValue
-8.933

@<SCITEGIC>MOL_PROPERTY
VdW12
SciTegic.value.DoubleValue
9.479

@<SCITEGIC>MOL_PROPERTY
Bond
SciTegic.value.DoubleValue
0.278

@<SCITEGIC>MOL_PROPERTY
Angle
SciTegic.value.DoubleValue
1.664

@<SCITEGIC>MOL_PROPERTY
Pdih
SciTegic.value.DoubleValue
3.392

@<SCITEGIC>MOL_PROPERTY
Idih
SciTegic.value.DoubleValue
0.000

@<SCITEGIC>MOL_PROPERTY
Tether
SciTegic.value.DoubleValue
0.000

@<TRIPOS>MOLECULE
guest-s14_vm2.mol2 : vm2 ligand conformer 161
          26          25           1
SMALL
USER_CHARGES
 
@<TRIPOS>ATOM
       1    C1      18.797849   18.632950   20.417411 C.3        1 MOL1        -0.2400
       2    H1      18.209593   19.003524   21.263834 H          1 MOL1         0.0971
       3    H2      18.864490   19.438142   19.674269 H          1 MOL1         0.0971
       4    H3      18.238945   17.805389   19.961714 H          1 MOL1         0.0971
       5    C2      20.206596   18.161463   20.847439 C.3        1 MOL1        -0.1385
       6    H4      20.721431   17.778868   19.954984 H          1 MOL1         0.0960
       7    H5      20.130492   17.311331   21.539417 H          1 MOL1         0.0960
       8    C3      21.071329   19.287962   21.469865 C.3        1 MOL1        -0.1409
       9    H6      22.115670   19.119855   21.172395 H          1 MOL1         0.0960
      10    H7      20.795167   20.260956   21.040735 H          1 MOL1         0.0960
      11    C4      21.034436   19.357117   23.018337 C.3        1 MOL1        -0.1409
      12    H8      21.741492   20.132455   23.344119 H          1 MOL1         0.0960
      13    H9      21.408621   18.409607   23.428525 H          1 MOL1         0.0960
      14    C5      19.638201   19.671131   23.608756 C.3        1 MOL1        -0.1409
      15    H10     19.216321   20.545584   23.094610 H          1 MOL1         0.0960
      16    H11     18.954712   18.835119   23.415662 H          1 MOL1         0.0960
      17    C6      19.675297   19.962003   25.129965 C.3        1 MOL1        -0.1450
      18    H12     18.662873   20.205655   25.478399 H          1 MOL1         0.0960
      19    H13     20.285127   20.856738   25.312710 H          1 MOL1         0.0960
      20    C7      20.235568   18.800582   25.975856 C.3        1 MOL1         0.0172
      21    H14     21.258573   18.575734   25.663351 H          1 MOL1         0.0934
      22    H15     20.259404   19.096498   27.028164 H          1 MOL1         0.0934
      23    N1      19.421723   17.525792   25.873370 N.4        1 MOL1        -0.5956
      24    H16     19.815232   16.775079   26.451107 H          1 MOL1         0.3624
      25    H17     19.385147   17.178094   24.910244 H          1 MOL1         0.3624
      26    H18     18.454572   17.666470   26.182791 H          1 MOL1         0.3624
@<TRIPOS>BOND
    1     1     2    1
    2     1     3    1
    3     1     4    1
    4     1     5    1
    5     5     6    1
    6     5     7    1
    7     5     8    1
    8     8     9    1
    9     8    10    1
   10     8    11    1
   11    11    12    1
   12    11    13    1
   13    11    14    1
   14    14    15    1
   15    14    16    1
   16    14    17    1
   17    17    18    1
   18    17    19    1
   19    17    20    1
   20    20    21    1
   21    20    22    1
   22    20    23    1
   23    23    24    1
   24    23    25    1
   25    23    26    1
@<TRIPOS>SUBSTRUCTURE
       1 MOL1            1 RESIDUE      1      MOL     
@<SCITEGIC>MOL_PROPERTY
VM2 Rank
SciTegic.value.IntegerValue
161

@<SCITEGIC>MOL_PROPERTY
Conf_Id
SciTegic.value.IntegerValue
729

@<SCITEGIC>MOL_PROPERTY
Probability
SciTegic.value.DoubleValue
0.00

@<SCITEGIC>MOL_PROPERTY
Sum Probability
SciTegic.value.DoubleValue
99.90

@<SCITEGIC>MOL_PROPERTY
Delta G
SciTegic.value.DoubleValue
4.360

@<SCITEGIC>MOL_PROPERTY
G
SciTegic.value.DoubleValue
52.621

@<SCITEGIC>MOL_PROPERTY
E
SciTegic.value.DoubleValue
19.645

@<SCITEGIC>MOL_PROPERTY
-TS
SciTegic.value.DoubleValue
32.977

@<SCITEGIC>MOL_PROPERTY
U+W
SciTegic.value.DoubleValue
-1.817

@<SCITEGIC>MOL_PROPERTY
U
SciTegic.value.DoubleValue
52.217

@<SCITEGIC>MOL_PROPERTY
W
SciTegic.value.DoubleValue
-54.034

@<SCITEGIC>MOL_PROPERTY
W(PB)
SciTegic.value.DoubleValue
-56.256

@<SCITEGIC>MOL_PROPERTY
W(SA)
SciTegic.value.DoubleValue
2.222

@<SCITEGIC>MOL_PROPERTY
Valence
SciTegic.value.DoubleValue
5.510

@<SCITEGIC>MOL_PROPERTY
Coulomb
SciTegic.value.DoubleValue
45.996

@<SCITEGIC>MOL_PROPERTY
VdW
SciTegic.value.DoubleValue
0.711

@<SCITEGIC>MOL_PROPERTY
VdW6
SciTegic.value.DoubleValue
-8.694

@<SCITEGIC>MOL_PROPERTY
VdW12
SciTegic.value.DoubleValue
9.406

@<SCITEGIC>MOL_PROPERTY
Bond
SciTegic.value.DoubleValue
0.259

@<SCITEGIC>MOL_PROPERTY
Angle
SciTegic.value.DoubleValue
1.386

@<SCITEGIC>MOL_PROPERTY
Pdih
SciTegic.value.DoubleValue
3.865

@<SCITEGIC>MOL_PROPERTY
Idih
SciTegic.value.DoubleValue
0.000

@<SCITEGIC>MOL_PROPERTY
Tether
SciTegic.value.DoubleValue
0.000

@<TRIPOS>MOLECULE
guest-s14_vm2.mol2 : vm2 ligand conformer 162
          26          25           1
SMALL
USER_CHARGES
 
@<TRIPOS>ATOM
       1    C1      19.835115   20.216303   20.294413 C.3        1 MOL1        -0.2400
       2    H1      20.042268   20.804047   21.195450 H          1 MOL1         0.0971
       3    H2      20.421499   20.648292   19.473173 H          1 MOL1         0.0971
       4    H3      18.773069   20.341781   20.046695 H          1 MOL1         0.0971
       5    C2      20.184767   18.721313   20.480648 C.3        1 MOL1        -0.1385
       6    H4      21.263312   18.599242   20.652148 H          1 MOL1         0.0960
       7    H5      19.968971   18.203186   19.535724 H          1 MOL1         0.0960
       8    C3      19.377407   18.038096   21.614412 C.3        1 MOL1        -0.1409
       9    H6      18.401661   18.528512   21.734864 H          1 MOL1         0.0960
      10    H7      19.153541   17.008831   21.301502 H          1 MOL1         0.0960
      11    C4      20.107251   17.960879   22.980413 C.3        1 MOL1        -0.1409
      12    H8      21.029314   17.374166   22.867813 H          1 MOL1         0.0960
      13    H9      19.467771   17.395138   23.670304 H          1 MOL1         0.0960
      14    C5      20.448161   19.338693   23.599732 C.3        1 MOL1        -0.1409
      15    H10     21.160401   19.860343   22.947839 H          1 MOL1         0.0960
      16    H11     19.546355   19.963806   23.639355 H          1 MOL1         0.0960
      17    C6      21.083165   19.235348   25.009565 C.3        1 MOL1        -0.1450
      18    H12     21.360554   20.240005   25.355272 H          1 MOL1         0.0960
      19    H13     22.019560   18.665515   24.943921 H          1 MOL1         0.0960
      20    C7      20.174361   18.574781   26.066345 C.3        1 MOL1         0.0172
      21    H14     19.935601   17.552227   25.763455 H          1 MOL1         0.0934
      22    H15     20.703578   18.529608   27.022053 H          1 MOL1         0.0934
      23    N1      18.870772   19.313587   26.295473 N.4        1 MOL1        -0.5956
      24    H16     19.029434   20.276136   26.610426 H          1 MOL1         0.3624
      25    H17     18.293364   18.855642   27.008949 H          1 MOL1         0.3624
      26    H18     18.309854   19.362612   25.439324 H          1 MOL1         0.3624
@<TRIPOS>BOND
    1     1     2    1
    2     1     3    1
    3     1     4    1
    4     1     5    1
    5     5     6    1
    6     5     7    1
    7     5     8    1
    8     8     9    1
    9     8    10    1
   10     8    11    1
   11    11    12    1
   12    11    13    1
   13    11    14    1
   14    14    15    1
   15    14    16    1
   16    14    17    1
   17    17    18    1
   18    17    19    1
   19    17    20    1
   20    20    21    1
   21    20    22    1
   22    20    23    1
   23    23    24    1
   24    23    25    1
   25    23    26    1
@<TRIPOS>SUBSTRUCTURE
       1 MOL1            1 RESIDUE      1      MOL     
@<SCITEGIC>MOL_PROPERTY
VM2 Rank
SciTegic.value.IntegerValue
162

@<SCITEGIC>MOL_PROPERTY
Conf_Id
SciTegic.value.IntegerValue
835

@<SCITEGIC>MOL_PROPERTY
Probability
SciTegic.value.DoubleValue
0.00

@<SCITEGIC>MOL_PROPERTY
Sum Probability
SciTegic.value.DoubleValue
99.90

@<SCITEGIC>MOL_PROPERTY
Delta G
SciTegic.value.DoubleValue
4.365

@<SCITEGIC>MOL_PROPERTY
G
SciTegic.value.DoubleValue
52.626

@<SCITEGIC>MOL_PROPERTY
E
SciTegic.value.DoubleValue
19.662

@<SCITEGIC>MOL_PROPERTY
-TS
SciTegic.value.DoubleValue
32.965

@<SCITEGIC>MOL_PROPERTY
U+W
SciTegic.value.DoubleValue
-1.800

@<SCITEGIC>MOL_PROPERTY
U
SciTegic.value.DoubleValue
52.090

@<SCITEGIC>MOL_PROPERTY
W
SciTegic.value.DoubleValue
-53.890

@<SCITEGIC>MOL_PROPERTY
W(PB)
SciTegic.value.DoubleValue
-56.114

@<SCITEGIC>MOL_PROPERTY
W(SA)
SciTegic.value.DoubleValue
2.224

@<SCITEGIC>MOL_PROPERTY
Valence
SciTegic.value.DoubleValue
5.620

@<SCITEGIC>MOL_PROPERTY
Coulomb
SciTegic.value.DoubleValue
45.628

@<SCITEGIC>MOL_PROPERTY
VdW
SciTegic.value.DoubleValue
0.841

@<SCITEGIC>MOL_PROPERTY
VdW6
SciTegic.value.DoubleValue
-8.591

@<SCITEGIC>MOL_PROPERTY
VdW12
SciTegic.value.DoubleValue
9.432

@<SCITEGIC>MOL_PROPERTY
Bond
SciTegic.value.DoubleValue
0.266

@<SCITEGIC>MOL_PROPERTY
Angle
SciTegic.value.DoubleValue
1.473

@<SCITEGIC>MOL_PROPERTY
Pdih
SciTegic.value.DoubleValue
3.881

@<SCITEGIC>MOL_PROPERTY
Idih
SciTegic.value.DoubleValue
0.000

@<SCITEGIC>MOL_PROPERTY
Tether
SciTegic.value.DoubleValue
0.000

@<TRIPOS>MOLECULE
guest-s14_vm2.mol2 : vm2 ligand conformer 163
          26          25           1
SMALL
USER_CHARGES
 
@<TRIPOS>ATOM
       1    C1      19.252537   19.800725   20.266459 C.3        1 MOL1        -0.2400
       2    H1      18.403517   20.209919   20.829240 H          1 MOL1         0.0971
       3    H2      20.113864   20.464253   20.412321 H          1 MOL1         0.0971
       4    H3      18.992622   19.827180   19.200322 H          1 MOL1         0.0971
       5    C2      19.568386   18.354388   20.710362 C.3        1 MOL1        -0.1385
       6    H4      20.437153   17.977595   20.152679 H          1 MOL1         0.0960
       7    H5      18.723352   17.707407   20.436264 H          1 MOL1         0.0960
       8    C3      19.822929   18.221782   22.231168 C.3        1 MOL1        -0.1409
       9    H6      18.936332   18.575486   22.768567 H          1 MOL1         0.0960
      10    H7      19.928184   17.155125   22.471725 H          1 MOL1         0.0960
      11    C4      21.091818   18.975895   22.706426 C.3        1 MOL1        -0.1409
      12    H8      20.983443   20.056582   22.546473 H          1 MOL1         0.0960
      13    H9      21.932083   18.657717   22.073979 H          1 MOL1         0.0960
      14    C5      21.474513   18.703942   24.185080 C.3        1 MOL1        -0.1409
      15    H10     21.287154   17.653187   24.443019 H          1 MOL1         0.0960
      16    H11     22.561284   18.836450   24.278852 H          1 MOL1         0.0960
      17    C6      20.807033   19.650417   25.218456 C.3        1 MOL1        -0.1450
      18    H12     21.067589   20.689553   24.977568 H          1 MOL1         0.0960
      19    H13     21.237550   19.454001   26.209354 H          1 MOL1         0.0960
      20    C7      19.273859   19.537929   25.318922 C.3        1 MOL1         0.0172
      21    H14     18.909647   20.238473   26.075264 H          1 MOL1         0.0934
      22    H15     18.818750   19.810069   24.364190 H          1 MOL1         0.0934
      23    N1      18.789925   18.153922   25.704126 N.4        1 MOL1        -0.5956
      24    H16     19.158342   17.863907   26.615785 H          1 MOL1         0.3624
      25    H17     19.082794   17.449391   25.020532 H          1 MOL1         0.3624
      26    H18     17.767004   18.111053   25.766783 H          1 MOL1         0.3624
@<TRIPOS>BOND
    1     1     2    1
    2     1     3    1
    3     1     4    1
    4     1     5    1
    5     5     6    1
    6     5     7    1
    7     5     8    1
    8     8     9    1
    9     8    10    1
   10     8    11    1
   11    11    12    1
   12    11    13    1
   13    11    14    1
   14    14    15    1
   15    14    16    1
   16    14    17    1
   17    17    18    1
   18    17    19    1
   19    17    20    1
   20    20    21    1
   21    20    22    1
   22    20    23    1
   23    23    24    1
   24    23    25    1
   25    23    26    1
@<TRIPOS>SUBSTRUCTURE
       1 MOL1            1 RESIDUE      1      MOL     
@<SCITEGIC>MOL_PROPERTY
VM2 Rank
SciTegic.value.IntegerValue
163

@<SCITEGIC>MOL_PROPERTY
Conf_Id
SciTegic.value.IntegerValue
279

@<SCITEGIC>MOL_PROPERTY
Probability
SciTegic.value.DoubleValue
0.00

@<SCITEGIC>MOL_PROPERTY
Sum Probability
SciTegic.value.DoubleValue
99.91

@<SCITEGIC>MOL_PROPERTY
Delta G
SciTegic.value.DoubleValue
4.369

@<SCITEGIC>MOL_PROPERTY
G
SciTegic.value.DoubleValue
52.630

@<SCITEGIC>MOL_PROPERTY
E
SciTegic.value.DoubleValue
19.681

@<SCITEGIC>MOL_PROPERTY
-TS
SciTegic.value.DoubleValue
32.949

@<SCITEGIC>MOL_PROPERTY
U+W
SciTegic.value.DoubleValue
-1.781

@<SCITEGIC>MOL_PROPERTY
U
SciTegic.value.DoubleValue
52.361

@<SCITEGIC>MOL_PROPERTY
W
SciTegic.value.DoubleValue
-54.142

@<SCITEGIC>MOL_PROPERTY
W(PB)
SciTegic.value.DoubleValue
-56.381

@<SCITEGIC>MOL_PROPERTY
W(SA)
SciTegic.value.DoubleValue
2.239

@<SCITEGIC>MOL_PROPERTY
Valence
SciTegic.value.DoubleValue
5.334

@<SCITEGIC>MOL_PROPERTY
Coulomb
SciTegic.value.DoubleValue
46.481

@<SCITEGIC>MOL_PROPERTY
VdW
SciTegic.value.DoubleValue
0.546

@<SCITEGIC>MOL_PROPERTY
VdW6
SciTegic.value.DoubleValue
-8.933

@<SCITEGIC>MOL_PROPERTY
VdW12
SciTegic.value.DoubleValue
9.479

@<SCITEGIC>MOL_PROPERTY
Bond
SciTegic.value.DoubleValue
0.278

@<SCITEGIC>MOL_PROPERTY
Angle
SciTegic.value.DoubleValue
1.663

@<SCITEGIC>MOL_PROPERTY
Pdih
SciTegic.value.DoubleValue
3.393

@<SCITEGIC>MOL_PROPERTY
Idih
SciTegic.value.DoubleValue
0.000

@<SCITEGIC>MOL_PROPERTY
Tether
SciTegic.value.DoubleValue
0.000

@<TRIPOS>MOLECULE
guest-s14_vm2.mol2 : vm2 ligand conformer 164
          26          25           1
SMALL
USER_CHARGES
 
@<TRIPOS>ATOM
       1    C1      19.031369   19.685872   20.267787 C.3        1 MOL1        -0.2400
       2    H1      18.368327   19.698991   21.139814 H          1 MOL1         0.0971
       3    H2      19.343697   20.718733   20.066044 H          1 MOL1         0.0971
       4    H3      18.442783   19.342274   19.407320 H          1 MOL1         0.0971
       5    C2      20.259433   18.770776   20.483182 C.3        1 MOL1        -0.1385
       6    H4      20.863919   18.794306   19.565605 H          1 MOL1         0.0960
       7    H5      19.941050   17.726445   20.607990 H          1 MOL1         0.0960
       8    C3      21.150952   19.209016   21.673635 C.3        1 MOL1        -0.1409
       9    H6      22.198955   19.019512   21.403100 H          1 MOL1         0.0960
      10    H7      21.077001   20.294800   21.824303 H          1 MOL1         0.0960
      11    C4      20.872575   18.465983   23.005928 C.3        1 MOL1        -0.1409
      12    H8      21.610835   18.809967   23.741861 H          1 MOL1         0.0960
      13    H9      21.055839   17.391429   22.868599 H          1 MOL1         0.0960
      14    C5      19.444130   18.675426   23.566126 C.3        1 MOL1        -0.1409
      15    H10     19.220992   19.748704   23.628359 H          1 MOL1         0.0960
      16    H11     18.716150   18.245978   22.866132 H          1 MOL1         0.0960
      17    C6      19.224872   18.008049   24.947456 C.3        1 MOL1        -0.1450
      18    H12     19.385006   16.925534   24.855974 H          1 MOL1         0.0960
      19    H13     18.176901   18.137428   25.248805 H          1 MOL1         0.0960
      20    C7      20.138524   18.551260   26.065140 C.3        1 MOL1         0.0172
      21    H14     19.928405   18.017843   26.996165 H          1 MOL1         0.0934
      22    H15     21.185834   18.378118   25.805279 H          1 MOL1         0.0934
      23    N1      19.959145   20.032619   26.331745 N.4        1 MOL1        -0.5956
      24    H16     18.997771   20.255415   26.609220 H          1 MOL1         0.3624
      25    H17     20.173494   20.593628   25.501476 H          1 MOL1         0.3624
      26    H18     20.572821   20.361444   27.085026 H          1 MOL1         0.3624
@<TRIPOS>BOND
    1     1     2    1
    2     1     3    1
    3     1     4    1
    4     1     5    1
    5     5     6    1
    6     5     7    1
    7     5     8    1
    8     8     9    1
    9     8    10    1
   10     8    11    1
   11    11    12    1
   12    11    13    1
   13    11    14    1
   14    14    15    1
   15    14    16    1
   16    14    17    1
   17    17    18    1
   18    17    19    1
   19    17    20    1
   20    20    21    1
   21    20    22    1
   22    20    23    1
   23    23    24    1
   24    23    25    1
   25    23    26    1
@<TRIPOS>SUBSTRUCTURE
       1 MOL1            1 RESIDUE      1      MOL     
@<SCITEGIC>MOL_PROPERTY
VM2 Rank
SciTegic.value.IntegerValue
164

@<SCITEGIC>MOL_PROPERTY
Conf_Id
SciTegic.value.IntegerValue
539

@<SCITEGIC>MOL_PROPERTY
Probability
SciTegic.value.DoubleValue
0.00

@<SCITEGIC>MOL_PROPERTY
Sum Probability
SciTegic.value.DoubleValue
99.91

@<SCITEGIC>MOL_PROPERTY
Delta G
SciTegic.value.DoubleValue
4.373

@<SCITEGIC>MOL_PROPERTY
G
SciTegic.value.DoubleValue
52.634

@<SCITEGIC>MOL_PROPERTY
E
SciTegic.value.DoubleValue
19.670

@<SCITEGIC>MOL_PROPERTY
-TS
SciTegic.value.DoubleValue
32.965

@<SCITEGIC>MOL_PROPERTY
U+W
SciTegic.value.DoubleValue
-1.792

@<SCITEGIC>MOL_PROPERTY
U
SciTegic.value.DoubleValue
52.090

@<SCITEGIC>MOL_PROPERTY
W
SciTegic.value.DoubleValue
-53.882

@<SCITEGIC>MOL_PROPERTY
W(PB)
SciTegic.value.DoubleValue
-56.146

@<SCITEGIC>MOL_PROPERTY
W(SA)
SciTegic.value.DoubleValue
2.264

@<SCITEGIC>MOL_PROPERTY
Valence
SciTegic.value.DoubleValue
5.620

@<SCITEGIC>MOL_PROPERTY
Coulomb
SciTegic.value.DoubleValue
45.628

@<SCITEGIC>MOL_PROPERTY
VdW
SciTegic.value.DoubleValue
0.841

@<SCITEGIC>MOL_PROPERTY
VdW6
SciTegic.value.DoubleValue
-8.591

@<SCITEGIC>MOL_PROPERTY
VdW12
SciTegic.value.DoubleValue
9.432

@<SCITEGIC>MOL_PROPERTY
Bond
SciTegic.value.DoubleValue
0.266

@<SCITEGIC>MOL_PROPERTY
Angle
SciTegic.value.DoubleValue
1.473

@<SCITEGIC>MOL_PROPERTY
Pdih
SciTegic.value.DoubleValue
3.881

@<SCITEGIC>MOL_PROPERTY
Idih
SciTegic.value.DoubleValue
0.000

@<SCITEGIC>MOL_PROPERTY
Tether
SciTegic.value.DoubleValue
0.000

@<TRIPOS>MOLECULE
guest-s14_vm2.mol2 : vm2 ligand conformer 165
          26          25           1
SMALL
USER_CHARGES
 
@<TRIPOS>ATOM
       1    C1      20.460760   17.974622   19.996978 C.3        1 MOL1        -0.2400
       2    H1      21.398246   17.779149   20.531315 H          1 MOL1         0.0971
       3    H2      20.140102   17.030960   19.536979 H          1 MOL1         0.0971
       4    H3      20.670227   18.686466   19.188035 H          1 MOL1         0.0971
       5    C2      19.363321   18.515272   20.942298 C.3        1 MOL1        -0.1385
       6    H4      19.168701   17.781782   21.734031 H          1 MOL1         0.0960
       7    H5      18.427473   18.605240   20.373305 H          1 MOL1         0.0960
       8    C3      19.707576   19.900884   21.547318 C.3        1 MOL1        -0.1409
       9    H6      19.984389   20.575019   20.725008 H          1 MOL1         0.0960
      10    H7      18.806212   20.341128   21.995297 H          1 MOL1         0.0960
      11    C4      20.854915   19.890773   22.594173 C.3        1 MOL1        -0.1409
      12    H8      21.430818   20.818985   22.475827 H          1 MOL1         0.0960
      13    H9      21.563885   19.078597   22.391091 H          1 MOL1         0.0960
      14    C5      20.384995   19.820044   24.070136 C.3        1 MOL1        -0.1409
      15    H10     21.272536   19.901139   24.711267 H          1 MOL1         0.0960
      16    H11     19.762485   20.696453   24.297704 H          1 MOL1         0.0960
      17    C6      19.606865   18.530525   24.428411 C.3        1 MOL1        -0.1450
      18    H12     20.188852   17.645068   24.140364 H          1 MOL1         0.0960
      19    H13     18.670841   18.498212   23.857431 H          1 MOL1         0.0960
      20    C7      19.248947   18.447654   25.924965 C.3        1 MOL1         0.0172
      21    H14     18.692382   19.341101   26.220582 H          1 MOL1         0.0934
      22    H15     18.610880   17.576462   26.096546 H          1 MOL1         0.0934
      23    N1      20.453619   18.319227   26.836721 N.4        1 MOL1        -0.5956
      24    H16     20.179089   18.251650   27.822804 H          1 MOL1         0.3624
      25    H17     21.080142   19.125791   26.754720 H          1 MOL1         0.3624
      26    H18     21.006239   17.482910   26.621878 H          1 MOL1         0.3624
@<TRIPOS>BOND
    1     1     2    1
    2     1     3    1
    3     1     4    1
    4     1     5    1
    5     5     6    1
    6     5     7    1
    7     5     8    1
    8     8     9    1
    9     8    10    1
   10     8    11    1
   11    11    12    1
   12    11    13    1
   13    11    14    1
   14    14    15    1
   15    14    16    1
   16    14    17    1
   17    17    18    1
   18    17    19    1
   19    17    20    1
   20    20    21    1
   21    20    22    1
   22    20    23    1
   23    23    24    1
   24    23    25    1
   25    23    26    1
@<TRIPOS>SUBSTRUCTURE
       1 MOL1            1 RESIDUE      1      MOL     
@<SCITEGIC>MOL_PROPERTY
VM2 Rank
SciTegic.value.IntegerValue
165

@<SCITEGIC>MOL_PROPERTY
Conf_Id
SciTegic.value.IntegerValue
849

@<SCITEGIC>MOL_PROPERTY
Probability
SciTegic.value.DoubleValue
0.00

@<SCITEGIC>MOL_PROPERTY
Sum Probability
SciTegic.value.DoubleValue
99.92

@<SCITEGIC>MOL_PROPERTY
Delta G
SciTegic.value.DoubleValue
4.419

@<SCITEGIC>MOL_PROPERTY
G
SciTegic.value.DoubleValue
52.680

@<SCITEGIC>MOL_PROPERTY
E
SciTegic.value.DoubleValue
19.810

@<SCITEGIC>MOL_PROPERTY
-TS
SciTegic.value.DoubleValue
32.870

@<SCITEGIC>MOL_PROPERTY
U+W
SciTegic.value.DoubleValue
-1.652

@<SCITEGIC>MOL_PROPERTY
U
SciTegic.value.DoubleValue
52.213

@<SCITEGIC>MOL_PROPERTY
W
SciTegic.value.DoubleValue
-53.865

@<SCITEGIC>MOL_PROPERTY
W(PB)
SciTegic.value.DoubleValue
-56.127

@<SCITEGIC>MOL_PROPERTY
W(SA)
SciTegic.value.DoubleValue
2.262

@<SCITEGIC>MOL_PROPERTY
Valence
SciTegic.value.DoubleValue
6.034

@<SCITEGIC>MOL_PROPERTY
Coulomb
SciTegic.value.DoubleValue
45.240

@<SCITEGIC>MOL_PROPERTY
VdW
SciTegic.value.DoubleValue
0.939

@<SCITEGIC>MOL_PROPERTY
VdW6
SciTegic.value.DoubleValue
-8.400

@<SCITEGIC>MOL_PROPERTY
VdW12
SciTegic.value.DoubleValue
9.339

@<SCITEGIC>MOL_PROPERTY
Bond
SciTegic.value.DoubleValue
0.287

@<SCITEGIC>MOL_PROPERTY
Angle
SciTegic.value.DoubleValue
1.514

@<SCITEGIC>MOL_PROPERTY
Pdih
SciTegic.value.DoubleValue
4.234

@<SCITEGIC>MOL_PROPERTY
Idih
SciTegic.value.DoubleValue
0.000

@<SCITEGIC>MOL_PROPERTY
Tether
SciTegic.value.DoubleValue
0.000

@<TRIPOS>MOLECULE
guest-s14_vm2.mol2 : vm2 ligand conformer 166
          26          25           1
SMALL
USER_CHARGES
 
@<TRIPOS>ATOM
       1    C1      19.930442   20.395338   20.686571 C.3        1 MOL1        -0.2400
       2    H1      19.027954   20.653546   21.255550 H          1 MOL1         0.0971
       3    H2      20.809897   20.657975   21.287209 H          1 MOL1         0.0971
       4    H3      19.950266   21.021583   19.785307 H          1 MOL1         0.0971
       5    C2      19.939030   18.899192   20.304327 C.3        1 MOL1        -0.1385
       6    H4      20.881214   18.658599   19.792356 H          1 MOL1         0.0960
       7    H5      19.140148   18.718465   19.571608 H          1 MOL1         0.0960
       8    C3      19.735649   17.935407   21.501057 C.3        1 MOL1        -0.1409
       9    H6      18.749208   18.105351   21.949631 H          1 MOL1         0.0960
      10    H7      19.703904   16.913314   21.099126 H          1 MOL1         0.0960
      11    C4      20.855357   17.994646   22.576062 C.3        1 MOL1        -0.1409
      12    H8      21.800791   18.288737   22.099934 H          1 MOL1         0.0960
      13    H9      21.027279   16.982208   22.966771 H          1 MOL1         0.0960
      14    C5      20.564954   18.936520   23.773764 C.3        1 MOL1        -0.1409
      15    H10     21.500160   19.074138   24.332284 H          1 MOL1         0.0960
      16    H11     20.271626   19.931287   23.417689 H          1 MOL1         0.0960
      17    C6      19.479045   18.387427   24.733624 C.3        1 MOL1        -0.1450
      18    H12     19.779875   17.403843   25.118056 H          1 MOL1         0.0960
      19    H13     18.538963   18.234932   24.189902 H          1 MOL1         0.0960
      20    C7      19.197993   19.335267   25.915670 C.3        1 MOL1         0.0172
      21    H14     18.910921   20.320142   25.537503 H          1 MOL1         0.0934
      22    H15     18.366223   18.941178   26.505927 H          1 MOL1         0.0934
      23    N1      20.378530   19.515203   26.849925 N.4        1 MOL1        -0.5956
      24    H16     20.681718   18.624087   27.256111 H          1 MOL1         0.3624
      25    H17     20.153289   20.139604   27.632023 H          1 MOL1         0.3624
      26    H18     21.187019   19.919007   26.367091 H          1 MOL1         0.3624
@<TRIPOS>BOND
    1     1     2    1
    2     1     3    1
    3     1     4    1
    4     1     5    1
    5     5     6    1
    6     5     7    1
    7     5     8    1
    8     8     9    1
    9     8    10    1
   10     8    11    1
   11    11    12    1
   12    11    13    1
   13    11    14    1
   14    14    15    1
   15    14    16    1
   16    14    17    1
   17    17    18    1
   18    17    19    1
   19    17    20    1
   20    20    21    1
   21    20    22    1
   22    20    23    1
   23    23    24    1
   24    23    25    1
   25    23    26    1
@<TRIPOS>SUBSTRUCTURE
       1 MOL1            1 RESIDUE      1      MOL     
@<SCITEGIC>MOL_PROPERTY
VM2 Rank
SciTegic.value.IntegerValue
166

@<SCITEGIC>MOL_PROPERTY
Conf_Id
SciTegic.value.IntegerValue
858

@<SCITEGIC>MOL_PROPERTY
Probability
SciTegic.value.DoubleValue
0.00

@<SCITEGIC>MOL_PROPERTY
Sum Probability
SciTegic.value.DoubleValue
99.92

@<SCITEGIC>MOL_PROPERTY
Delta G
SciTegic.value.DoubleValue
4.456

@<SCITEGIC>MOL_PROPERTY
G
SciTegic.value.DoubleValue
52.717

@<SCITEGIC>MOL_PROPERTY
E
SciTegic.value.DoubleValue
19.850

@<SCITEGIC>MOL_PROPERTY
-TS
SciTegic.value.DoubleValue
32.867

@<SCITEGIC>MOL_PROPERTY
U+W
SciTegic.value.DoubleValue
-1.612

@<SCITEGIC>MOL_PROPERTY
U
SciTegic.value.DoubleValue
52.210

@<SCITEGIC>MOL_PROPERTY
W
SciTegic.value.DoubleValue
-53.822

@<SCITEGIC>MOL_PROPERTY
W(PB)
SciTegic.value.DoubleValue
-56.080

@<SCITEGIC>MOL_PROPERTY
W(SA)
SciTegic.value.DoubleValue
2.259

@<SCITEGIC>MOL_PROPERTY
Valence
SciTegic.value.DoubleValue
6.007

@<SCITEGIC>MOL_PROPERTY
Coulomb
SciTegic.value.DoubleValue
45.273

@<SCITEGIC>MOL_PROPERTY
VdW
SciTegic.value.DoubleValue
0.930

@<SCITEGIC>MOL_PROPERTY
VdW6
SciTegic.value.DoubleValue
-8.391

@<SCITEGIC>MOL_PROPERTY
VdW12
SciTegic.value.DoubleValue
9.322

@<SCITEGIC>MOL_PROPERTY
Bond
SciTegic.value.DoubleValue
0.291

@<SCITEGIC>MOL_PROPERTY
Angle
SciTegic.value.DoubleValue
1.472

@<SCITEGIC>MOL_PROPERTY
Pdih
SciTegic.value.DoubleValue
4.245

@<SCITEGIC>MOL_PROPERTY
Idih
SciTegic.value.DoubleValue
0.000

@<SCITEGIC>MOL_PROPERTY
Tether
SciTegic.value.DoubleValue
0.000

@<TRIPOS>MOLECULE
guest-s14_vm2.mol2 : vm2 ligand conformer 167
          26          25           1
SMALL
USER_CHARGES
 
@<TRIPOS>ATOM
       1    C1      19.006415   18.338634   19.903651 C.3        1 MOL1        -0.2400
       2    H1      19.186639   17.662009   19.058230 H          1 MOL1         0.0971
       3    H2      18.079308   18.020482   20.398062 H          1 MOL1         0.0971
       4    H3      18.849898   19.347576   19.500185 H          1 MOL1         0.0971
       5    C2      20.196732   18.312578   20.885672 C.3        1 MOL1        -0.1385
       6    H4      21.114132   18.601164   20.353636 H          1 MOL1         0.0960
       7    H5      20.349305   17.285509   21.245510 H          1 MOL1         0.0960
       8    C3      19.969337   19.259589   22.084574 C.3        1 MOL1        -0.1409
       9    H6      19.825739   20.285291   21.717646 H          1 MOL1         0.0960
      10    H7      19.040717   18.975945   22.595028 H          1 MOL1         0.0960
      11    C4      21.159892   19.230390   23.073224 C.3        1 MOL1        -0.1409
      12    H8      22.074991   19.502443   22.529073 H          1 MOL1         0.0960
      13    H9      21.329090   18.210614   23.440074 H          1 MOL1         0.0960
      14    C5      21.000553   20.206613   24.266485 C.3        1 MOL1        -0.1409
      15    H10     21.909723   20.158601   24.881679 H          1 MOL1         0.0960
      16    H11     20.958715   21.233261   23.877247 H          1 MOL1         0.0960
      17    C6      19.767990   19.975311   25.181554 C.3        1 MOL1        -0.1450
      18    H12     18.833105   20.123517   24.626348 H          1 MOL1         0.0960
      19    H13     19.777470   20.754472   25.955231 H          1 MOL1         0.0960
      20    C7      19.753190   18.608425   25.897028 C.3        1 MOL1         0.0172
      21    H14     20.763080   18.355596   26.230849 H          1 MOL1         0.0934
      22    H15     19.110783   18.673271   26.779388 H          1 MOL1         0.0934
      23    N1      19.226892   17.467460   25.048813 N.4        1 MOL1        -0.5956
      24    H16     19.268284   16.572093   25.547930 H          1 MOL1         0.3624
      25    H17     19.765999   17.361612   24.184336 H          1 MOL1         0.3624
      26    H18     18.248468   17.615336   24.781094 H          1 MOL1         0.3624
@<TRIPOS>BOND
    1     1     2    1
    2     1     3    1
    3     1     4    1
    4     1     5    1
    5     5     6    1
    6     5     7    1
    7     5     8    1
    8     8     9    1
    9     8    10    1
   10     8    11    1
   11    11    12    1
   12    11    13    1
   13    11    14    1
   14    14    15    1
   15    14    16    1
   16    14    17    1
   17    17    18    1
   18    17    19    1
   19    17    20    1
   20    20    21    1
   21    20    22    1
   22    20    23    1
   23    23    24    1
   24    23    25    1
   25    23    26    1
@<TRIPOS>SUBSTRUCTURE
       1 MOL1            1 RESIDUE      1      MOL     
@<SCITEGIC>MOL_PROPERTY
VM2 Rank
SciTegic.value.IntegerValue
167

@<SCITEGIC>MOL_PROPERTY
Conf_Id
SciTegic.value.IntegerValue
267

@<SCITEGIC>MOL_PROPERTY
Probability
SciTegic.value.DoubleValue
0.00

@<SCITEGIC>MOL_PROPERTY
Sum Probability
SciTegic.value.DoubleValue
99.93

@<SCITEGIC>MOL_PROPERTY
Delta G
SciTegic.value.DoubleValue
4.465

@<SCITEGIC>MOL_PROPERTY
G
SciTegic.value.DoubleValue
52.727

@<SCITEGIC>MOL_PROPERTY
E
SciTegic.value.DoubleValue
19.612

@<SCITEGIC>MOL_PROPERTY
-TS
SciTegic.value.DoubleValue
33.114

@<SCITEGIC>MOL_PROPERTY
U+W
SciTegic.value.DoubleValue
-1.850

@<SCITEGIC>MOL_PROPERTY
U
SciTegic.value.DoubleValue
51.717

@<SCITEGIC>MOL_PROPERTY
W
SciTegic.value.DoubleValue
-53.567

@<SCITEGIC>MOL_PROPERTY
W(PB)
SciTegic.value.DoubleValue
-55.821

@<SCITEGIC>MOL_PROPERTY
W(SA)
SciTegic.value.DoubleValue
2.254

@<SCITEGIC>MOL_PROPERTY
Valence
SciTegic.value.DoubleValue
4.225

@<SCITEGIC>MOL_PROPERTY
Coulomb
SciTegic.value.DoubleValue
47.188

@<SCITEGIC>MOL_PROPERTY
VdW
SciTegic.value.DoubleValue
0.304

@<SCITEGIC>MOL_PROPERTY
VdW6
SciTegic.value.DoubleValue
-8.652

@<SCITEGIC>MOL_PROPERTY
VdW12
SciTegic.value.DoubleValue
8.956

@<SCITEGIC>MOL_PROPERTY
Bond
SciTegic.value.DoubleValue
0.232

@<SCITEGIC>MOL_PROPERTY
Angle
SciTegic.value.DoubleValue
1.463

@<SCITEGIC>MOL_PROPERTY
Pdih
SciTegic.value.DoubleValue
2.531

@<SCITEGIC>MOL_PROPERTY
Idih
SciTegic.value.DoubleValue
0.000

@<SCITEGIC>MOL_PROPERTY
Tether
SciTegic.value.DoubleValue
0.000

@<TRIPOS>MOLECULE
guest-s14_vm2.mol2 : vm2 ligand conformer 168
          26          25           1
SMALL
USER_CHARGES
 
@<TRIPOS>ATOM
       1    C1      20.769202   20.152713   20.676288 C.3        1 MOL1        -0.2400
       2    H1      21.263283   19.662280   19.827595 H          1 MOL1         0.0971
       3    H2      20.626230   21.209396   20.415954 H          1 MOL1         0.0971
       4    H3      21.449064   20.111767   21.535625 H          1 MOL1         0.0971
       5    C2      19.411152   19.482850   20.987232 C.3        1 MOL1        -0.1385
       6    H4      18.749186   19.617656   20.120476 H          1 MOL1         0.0960
       7    H5      18.914675   19.994962   21.821165 H          1 MOL1         0.0960
       8    C3      19.528981   17.967586   21.282290 C.3        1 MOL1        -0.1409
       9    H6      18.518937   17.550304   21.395374 H          1 MOL1         0.0960
      10    H7      19.957069   17.472195   20.399972 H          1 MOL1         0.0960
      11    C4      20.374027   17.578741   22.525504 C.3        1 MOL1        -0.1409
      12    H8      21.412659   17.916137   22.412018 H          1 MOL1         0.0960
      13    H9      20.428174   16.481523   22.548492 H          1 MOL1         0.0960
      14    C5      19.790879   18.051894   23.883203 C.3        1 MOL1        -0.1409
      15    H10     18.696504   18.125202   23.818721 H          1 MOL1         0.0960
      16    H11     19.999507   17.274651   24.630333 H          1 MOL1         0.0960
      17    C6      20.390384   19.389352   24.386769 C.3        1 MOL1        -0.1450
      18    H12     20.231868   20.179242   23.645067 H          1 MOL1         0.0960
      19    H13     21.477374   19.290538   24.506657 H          1 MOL1         0.0960
      20    C7      19.769088   19.853786   25.718194 C.3        1 MOL1         0.0172
      21    H14     20.167319   20.837886   25.979938 H          1 MOL1         0.0934
      22    H15     18.685135   19.943440   25.606840 H          1 MOL1         0.0934
      23    N1      20.047287   18.922078   26.881519 N.4        1 MOL1        -0.5956
      24    H16     19.631803   19.267344   27.753546 H          1 MOL1         0.3624
      25    H17     21.052578   18.814244   27.050988 H          1 MOL1         0.3624
      26    H18     19.665223   17.985572   26.717597 H          1 MOL1         0.3624
@<TRIPOS>BOND
    1     1     2    1
    2     1     3    1
    3     1     4    1
    4     1     5    1
    5     5     6    1
    6     5     7    1
    7     5     8    1
    8     8     9    1
    9     8    10    1
   10     8    11    1
   11    11    12    1
   12    11    13    1
   13    11    14    1
   14    14    15    1
   15    14    16    1
   16    14    17    1
   17    17    18    1
   18    17    19    1
   19    17    20    1
   20    20    21    1
   21    20    22    1
   22    20    23    1
   23    23    24    1
   24    23    25    1
   25    23    26    1
@<TRIPOS>SUBSTRUCTURE
       1 MOL1            1 RESIDUE      1      MOL     
@<SCITEGIC>MOL_PROPERTY
VM2 Rank
SciTegic.value.IntegerValue
168

@<SCITEGIC>MOL_PROPERTY
Conf_Id
SciTegic.value.IntegerValue
1090

@<SCITEGIC>MOL_PROPERTY
Probability
SciTegic.value.DoubleValue
0.00

@<SCITEGIC>MOL_PROPERTY
Sum Probability
SciTegic.value.DoubleValue
99.93

@<SCITEGIC>MOL_PROPERTY
Delta G
SciTegic.value.DoubleValue
4.471

@<SCITEGIC>MOL_PROPERTY
G
SciTegic.value.DoubleValue
52.732

@<SCITEGIC>MOL_PROPERTY
E
SciTegic.value.DoubleValue
19.467

@<SCITEGIC>MOL_PROPERTY
-TS
SciTegic.value.DoubleValue
33.265

@<SCITEGIC>MOL_PROPERTY
U+W
SciTegic.value.DoubleValue
-1.995

@<SCITEGIC>MOL_PROPERTY
U
SciTegic.value.DoubleValue
51.906

@<SCITEGIC>MOL_PROPERTY
W
SciTegic.value.DoubleValue
-53.901

@<SCITEGIC>MOL_PROPERTY
W(PB)
SciTegic.value.DoubleValue
-56.108

@<SCITEGIC>MOL_PROPERTY
W(SA)
SciTegic.value.DoubleValue
2.207

@<SCITEGIC>MOL_PROPERTY
Valence
SciTegic.value.DoubleValue
5.914

@<SCITEGIC>MOL_PROPERTY
Coulomb
SciTegic.value.DoubleValue
45.360

@<SCITEGIC>MOL_PROPERTY
VdW
SciTegic.value.DoubleValue
0.633

@<SCITEGIC>MOL_PROPERTY
VdW6
SciTegic.value.DoubleValue
-8.890

@<SCITEGIC>MOL_PROPERTY
VdW12
SciTegic.value.DoubleValue
9.523

@<SCITEGIC>MOL_PROPERTY
Bond
SciTegic.value.DoubleValue
0.284

@<SCITEGIC>MOL_PROPERTY
Angle
SciTegic.value.DoubleValue
1.759

@<SCITEGIC>MOL_PROPERTY
Pdih
SciTegic.value.DoubleValue
3.872

@<SCITEGIC>MOL_PROPERTY
Idih
SciTegic.value.DoubleValue
0.000

@<SCITEGIC>MOL_PROPERTY
Tether
SciTegic.value.DoubleValue
0.000

@<TRIPOS>MOLECULE
guest-s14_vm2.mol2 : vm2 ligand conformer 169
          26          25           1
SMALL
USER_CHARGES
 
@<TRIPOS>ATOM
       1    C1      19.864473   18.987805   19.703958 C.3        1 MOL1        -0.2400
       2    H1      18.919562   19.542360   19.636041 H          1 MOL1         0.0971
       3    H2      20.682855   19.711909   19.800213 H          1 MOL1         0.0971
       4    H3      20.008331   18.452811   18.756325 H          1 MOL1         0.0971
       5    C2      19.842165   17.993931   20.887501 C.3        1 MOL1        -0.1385
       6    H4      20.809961   17.477646   20.955079 H          1 MOL1         0.0960
       7    H5      19.093350   17.216469   20.681001 H          1 MOL1         0.0960
       8    C3      19.506641   18.656563   22.245628 C.3        1 MOL1        -0.1409
       9    H6      18.532715   19.159828   22.173872 H          1 MOL1         0.0960
      10    H7      19.386944   17.860212   22.987747 H          1 MOL1         0.0960
      11    C4      20.582061   19.668571   22.718372 C.3        1 MOL1        -0.1409
      12    H8      20.639517   20.482302   21.983779 H          1 MOL1         0.0960
      13    H9      21.573581   19.195607   22.726360 H          1 MOL1         0.0960
      14    C5      20.285079   20.303759   24.102189 C.3        1 MOL1        -0.1409
      15    H10     20.722442   21.311793   24.109268 H          1 MOL1         0.0960
      16    H11     19.205007   20.454316   24.231228 H          1 MOL1         0.0960
      17    C6      20.882489   19.536701   25.311985 C.3        1 MOL1        -0.1450
      18    H12     20.730884   20.132588   26.221794 H          1 MOL1         0.0960
      19    H13     21.969926   19.452963   25.184658 H          1 MOL1         0.0960
      20    C7      20.303850   18.128103   25.544649 C.3        1 MOL1         0.0172
      21    H14     20.492567   17.500622   24.670610 H          1 MOL1         0.0934
      22    H15     20.804143   17.669401   26.401837 H          1 MOL1         0.0934
      23    N1      18.814242   18.123566   25.826717 N.4        1 MOL1        -0.5956
      24    H16     18.585934   18.667082   26.665436 H          1 MOL1         0.3624
      25    H17     18.457613   17.173949   25.979039 H          1 MOL1         0.3624
      26    H18     18.282184   18.527474   25.050003 H          1 MOL1         0.3624
@<TRIPOS>BOND
    1     1     2    1
    2     1     3    1
    3     1     4    1
    4     1     5    1
    5     5     6    1
    6     5     7    1
    7     5     8    1
    8     8     9    1
    9     8    10    1
   10     8    11    1
   11    11    12    1
   12    11    13    1
   13    11    14    1
   14    14    15    1
   15    14    16    1
   16    14    17    1
   17    17    18    1
   18    17    19    1
   19    17    20    1
   20    20    21    1
   21    20    22    1
   22    20    23    1
   23    23    24    1
   24    23    25    1
   25    23    26    1
@<TRIPOS>SUBSTRUCTURE
       1 MOL1            1 RESIDUE      1      MOL     
@<SCITEGIC>MOL_PROPERTY
VM2 Rank
SciTegic.value.IntegerValue
169

@<SCITEGIC>MOL_PROPERTY
Conf_Id
SciTegic.value.IntegerValue
538

@<SCITEGIC>MOL_PROPERTY
Probability
SciTegic.value.DoubleValue
0.00

@<SCITEGIC>MOL_PROPERTY
Sum Probability
SciTegic.value.DoubleValue
99.93

@<SCITEGIC>MOL_PROPERTY
Delta G
SciTegic.value.DoubleValue
4.485

@<SCITEGIC>MOL_PROPERTY
G
SciTegic.value.DoubleValue
52.746

@<SCITEGIC>MOL_PROPERTY
E
SciTegic.value.DoubleValue
19.756

@<SCITEGIC>MOL_PROPERTY
-TS
SciTegic.value.DoubleValue
32.990

@<SCITEGIC>MOL_PROPERTY
U+W
SciTegic.value.DoubleValue
-1.706

@<SCITEGIC>MOL_PROPERTY
U
SciTegic.value.DoubleValue
52.488

@<SCITEGIC>MOL_PROPERTY
W
SciTegic.value.DoubleValue
-54.194

@<SCITEGIC>MOL_PROPERTY
W(PB)
SciTegic.value.DoubleValue
-56.463

@<SCITEGIC>MOL_PROPERTY
W(SA)
SciTegic.value.DoubleValue
2.269

@<SCITEGIC>MOL_PROPERTY
Valence
SciTegic.value.DoubleValue
5.467

@<SCITEGIC>MOL_PROPERTY
Coulomb
SciTegic.value.DoubleValue
46.392

@<SCITEGIC>MOL_PROPERTY
VdW
SciTegic.value.DoubleValue
0.629

@<SCITEGIC>MOL_PROPERTY
VdW6
SciTegic.value.DoubleValue
-8.780

@<SCITEGIC>MOL_PROPERTY
VdW12
SciTegic.value.DoubleValue
9.409

@<SCITEGIC>MOL_PROPERTY
Bond
SciTegic.value.DoubleValue
0.279

@<SCITEGIC>MOL_PROPERTY
Angle
SciTegic.value.DoubleValue
1.628

@<SCITEGIC>MOL_PROPERTY
Pdih
SciTegic.value.DoubleValue
3.561

@<SCITEGIC>MOL_PROPERTY
Idih
SciTegic.value.DoubleValue
0.000

@<SCITEGIC>MOL_PROPERTY
Tether
SciTegic.value.DoubleValue
0.000

@<TRIPOS>MOLECULE
guest-s14_vm2.mol2 : vm2 ligand conformer 170
          26          25           1
SMALL
USER_CHARGES
 
@<TRIPOS>ATOM
       1    C1      20.510411   20.383745   20.945315 C.3        1 MOL1        -0.2400
       2    H1      20.410466   20.954676   20.013159 H          1 MOL1         0.0971
       3    H2      19.760123   20.766710   21.644541 H          1 MOL1         0.0971
       4    H3      21.504459   20.595577   21.359826 H          1 MOL1         0.0971
       5    C2      20.334249   18.872353   20.671243 C.3        1 MOL1        -0.1385
       6    H4      21.054014   18.588104   19.890838 H          1 MOL1         0.0960
       7    H5      19.339065   18.675780   20.248910 H          1 MOL1         0.0960
       8    C3      20.580961   17.972648   21.910354 C.3        1 MOL1        -0.1409
       9    H6      20.987144   17.017293   21.550328 H          1 MOL1         0.0960
      10    H7      21.368403   18.398771   22.545616 H          1 MOL1         0.0960
      11    C4      19.314015   17.641415   22.744766 C.3        1 MOL1        -0.1409
      12    H8      19.574842   16.871987   23.483743 H          1 MOL1         0.0960
      13    H9      18.570269   17.170869   22.087154 H          1 MOL1         0.0960
      14    C5      18.644410   18.834018   23.475904 C.3        1 MOL1        -0.1409
      15    H10     18.235896   19.535528   22.738058 H          1 MOL1         0.0960
      16    H11     17.774367   18.456565   24.030742 H          1 MOL1         0.0960
      17    C6      19.567915   19.592391   24.461827 C.3        1 MOL1        -0.1450
      18    H12     18.998031   20.409325   24.923891 H          1 MOL1         0.0960
      19    H13     20.396800   20.062758   23.918936 H          1 MOL1         0.0960
      20    C7      20.129128   18.680879   25.568713 C.3        1 MOL1         0.0172
      21    H14     19.304478   18.220146   26.119156 H          1 MOL1         0.0934
      22    H15     20.731657   17.886052   25.121366 H          1 MOL1         0.0934
      23    N1      20.999912   19.421552   26.562878 N.4        1 MOL1        -0.5956
      24    H16     20.483924   20.167578   27.040705 H          1 MOL1         0.3624
      25    H17     21.810777   19.856632   26.111015 H          1 MOL1         0.3624
      26    H18     21.362994   18.796513   27.290750 H          1 MOL1         0.3624
@<TRIPOS>BOND
    1     1     2    1
    2     1     3    1
    3     1     4    1
    4     1     5    1
    5     5     6    1
    6     5     7    1
    7     5     8    1
    8     8     9    1
    9     8    10    1
   10     8    11    1
   11    11    12    1
   12    11    13    1
   13    11    14    1
   14    14    15    1
   15    14    16    1
   16    14    17    1
   17    17    18    1
   18    17    19    1
   19    17    20    1
   20    20    21    1
   21    20    22    1
   22    20    23    1
   23    23    24    1
   24    23    25    1
   25    23    26    1
@<TRIPOS>SUBSTRUCTURE
       1 MOL1            1 RESIDUE      1      MOL     
@<SCITEGIC>MOL_PROPERTY
VM2 Rank
SciTegic.value.IntegerValue
170

@<SCITEGIC>MOL_PROPERTY
Conf_Id
SciTegic.value.IntegerValue
1614

@<SCITEGIC>MOL_PROPERTY
Probability
SciTegic.value.DoubleValue
0.00

@<SCITEGIC>MOL_PROPERTY
Sum Probability
SciTegic.value.DoubleValue
99.94

@<SCITEGIC>MOL_PROPERTY
Delta G
SciTegic.value.DoubleValue
4.492

@<SCITEGIC>MOL_PROPERTY
G
SciTegic.value.DoubleValue
52.753

@<SCITEGIC>MOL_PROPERTY
E
SciTegic.value.DoubleValue
19.432

@<SCITEGIC>MOL_PROPERTY
-TS
SciTegic.value.DoubleValue
33.321

@<SCITEGIC>MOL_PROPERTY
U+W
SciTegic.value.DoubleValue
-2.029

@<SCITEGIC>MOL_PROPERTY
U
SciTegic.value.DoubleValue
52.153

@<SCITEGIC>MOL_PROPERTY
W
SciTegic.value.DoubleValue
-54.183

@<SCITEGIC>MOL_PROPERTY
W(PB)
SciTegic.value.DoubleValue
-56.405

@<SCITEGIC>MOL_PROPERTY
W(SA)
SciTegic.value.DoubleValue
2.222

@<SCITEGIC>MOL_PROPERTY
Valence
SciTegic.value.DoubleValue
5.986

@<SCITEGIC>MOL_PROPERTY
Coulomb
SciTegic.value.DoubleValue
45.782

@<SCITEGIC>MOL_PROPERTY
VdW
SciTegic.value.DoubleValue
0.385

@<SCITEGIC>MOL_PROPERTY
VdW6
SciTegic.value.DoubleValue
-9.289

@<SCITEGIC>MOL_PROPERTY
VdW12
SciTegic.value.DoubleValue
9.674

@<SCITEGIC>MOL_PROPERTY
Bond
SciTegic.value.DoubleValue
0.289

@<SCITEGIC>MOL_PROPERTY
Angle
SciTegic.value.DoubleValue
2.080

@<SCITEGIC>MOL_PROPERTY
Pdih
SciTegic.value.DoubleValue
3.616

@<SCITEGIC>MOL_PROPERTY
Idih
SciTegic.value.DoubleValue
0.000

@<SCITEGIC>MOL_PROPERTY
Tether
SciTegic.value.DoubleValue
0.000

@<TRIPOS>MOLECULE
guest-s14_vm2.mol2 : vm2 ligand conformer 171
          26          25           1
SMALL
USER_CHARGES
 
@<TRIPOS>ATOM
       1    C1      18.429625   19.348708   20.648041 C.3        1 MOL1        -0.2400
       2    H1      17.567671   18.720945   20.387402 H          1 MOL1         0.0971
       3    H2      18.054932   20.229050   21.186344 H          1 MOL1         0.0971
       4    H3      18.892153   19.690778   19.713032 H          1 MOL1         0.0971
       5    C2      19.437649   18.559619   21.509696 C.3        1 MOL1        -0.1385
       6    H4      18.929297   18.200684   22.412788 H          1 MOL1         0.0960
       7    H5      19.769847   17.668656   20.958835 H          1 MOL1         0.0960
       8    C3      20.663615   19.423982   21.887295 C.3        1 MOL1        -0.1409
       9    H6      21.136810   19.784475   20.963528 H          1 MOL1         0.0960
      10    H7      20.344978   20.324881   22.426105 H          1 MOL1         0.0960
      11    C4      21.730485   18.660703   22.711541 C.3        1 MOL1        -0.1409
      12    H8      22.592554   19.323845   22.867219 H          1 MOL1         0.0960
      13    H9      22.106797   17.823181   22.108079 H          1 MOL1         0.0960
      14    C5      21.270391   18.109507   24.088574 C.3        1 MOL1        -0.1409
      15    H10     20.488939   17.350486   23.959487 H          1 MOL1         0.0960
      16    H11     22.124067   17.571709   24.523651 H          1 MOL1         0.0960
      17    C6      20.826754   19.193310   25.107507 C.3        1 MOL1        -0.1450
      18    H12     21.459611   20.083736   24.996797 H          1 MOL1         0.0960
      19    H13     21.006658   18.822415   26.125328 H          1 MOL1         0.0960
      20    C7      19.343445   19.603760   25.000792 C.3        1 MOL1         0.0172
      21    H14     19.155556   20.450485   25.666540 H          1 MOL1         0.0934
      22    H15     19.108589   19.916249   23.981625 H          1 MOL1         0.0934
      23    N1      18.379035   18.499411   25.387553 N.4        1 MOL1        -0.5956
      24    H16     17.402281   18.803497   25.312213 H          1 MOL1         0.3624
      25    H17     18.522282   18.193227   26.355423 H          1 MOL1         0.3624
      26    H18     18.485724   17.673906   24.790837 H          1 MOL1         0.3624
@<TRIPOS>BOND
    1     1     2    1
    2     1     3    1
    3     1     4    1
    4     1     5    1
    5     5     6    1
    6     5     7    1
    7     5     8    1
    8     8     9    1
    9     8    10    1
   10     8    11    1
   11    11    12    1
   12    11    13    1
   13    11    14    1
   14    14    15    1
   15    14    16    1
   16    14    17    1
   17    17    18    1
   18    17    19    1
   19    17    20    1
   20    20    21    1
   21    20    22    1
   22    20    23    1
   23    23    24    1
   24    23    25    1
   25    23    26    1
@<TRIPOS>SUBSTRUCTURE
       1 MOL1            1 RESIDUE      1      MOL     
@<SCITEGIC>MOL_PROPERTY
VM2 Rank
SciTegic.value.IntegerValue
171

@<SCITEGIC>MOL_PROPERTY
Conf_Id
SciTegic.value.IntegerValue
1373

@<SCITEGIC>MOL_PROPERTY
Probability
SciTegic.value.DoubleValue
0.00

@<SCITEGIC>MOL_PROPERTY
Sum Probability
SciTegic.value.DoubleValue
99.94

@<SCITEGIC>MOL_PROPERTY
Delta G
SciTegic.value.DoubleValue
4.495

@<SCITEGIC>MOL_PROPERTY
G
SciTegic.value.DoubleValue
52.756

@<SCITEGIC>MOL_PROPERTY
E
SciTegic.value.DoubleValue
19.304

@<SCITEGIC>MOL_PROPERTY
-TS
SciTegic.value.DoubleValue
33.452

@<SCITEGIC>MOL_PROPERTY
U+W
SciTegic.value.DoubleValue
-2.157

@<SCITEGIC>MOL_PROPERTY
U
SciTegic.value.DoubleValue
52.359

@<SCITEGIC>MOL_PROPERTY
W
SciTegic.value.DoubleValue
-54.516

@<SCITEGIC>MOL_PROPERTY
W(PB)
SciTegic.value.DoubleValue
-56.739

@<SCITEGIC>MOL_PROPERTY
W(SA)
SciTegic.value.DoubleValue
2.223

@<SCITEGIC>MOL_PROPERTY
Valence
SciTegic.value.DoubleValue
5.321

@<SCITEGIC>MOL_PROPERTY
Coulomb
SciTegic.value.DoubleValue
46.894

@<SCITEGIC>MOL_PROPERTY
VdW
SciTegic.value.DoubleValue
0.144

@<SCITEGIC>MOL_PROPERTY
VdW6
SciTegic.value.DoubleValue
-9.549

@<SCITEGIC>MOL_PROPERTY
VdW12
SciTegic.value.DoubleValue
9.693

@<SCITEGIC>MOL_PROPERTY
Bond
SciTegic.value.DoubleValue
0.274

@<SCITEGIC>MOL_PROPERTY
Angle
SciTegic.value.DoubleValue
1.814

@<SCITEGIC>MOL_PROPERTY
Pdih
SciTegic.value.DoubleValue
3.233

@<SCITEGIC>MOL_PROPERTY
Idih
SciTegic.value.DoubleValue
0.000

@<SCITEGIC>MOL_PROPERTY
Tether
SciTegic.value.DoubleValue
0.000

@<TRIPOS>MOLECULE
guest-s14_vm2.mol2 : vm2 ligand conformer 172
          26          25           1
SMALL
USER_CHARGES
 
@<TRIPOS>ATOM
       1    C1      20.858875   18.236771   20.010473 C.3        1 MOL1        -0.2400
       2    H1      20.160510   18.350194   19.171182 H          1 MOL1         0.0971
       3    H2      21.872905   18.172654   19.595081 H          1 MOL1         0.0971
       4    H3      20.644783   17.282439   20.506476 H          1 MOL1         0.0971
       5    C2      20.750030   19.429097   20.988644 C.3        1 MOL1        -0.1385
       6    H4      21.062001   20.341323   20.461217 H          1 MOL1         0.0960
       7    H5      21.463203   19.294010   21.810750 H          1 MOL1         0.0960
       8    C3      19.314139   19.641634   21.534101 C.3        1 MOL1        -0.1409
       9    H6      19.243527   20.629442   22.009711 H          1 MOL1         0.0960
      10    H7      18.624586   19.678774   20.679460 H          1 MOL1         0.0960
      11    C4      18.823365   18.552126   22.526325 C.3        1 MOL1        -0.1409
      12    H8      19.299644   17.586604   22.315528 H          1 MOL1         0.0960
      13    H9      17.750040   18.393549   22.352913 H          1 MOL1         0.0960
      14    C5      19.004484   18.910485   24.024015 C.3        1 MOL1        -0.1409
      15    H10     18.434075   19.821236   24.253288 H          1 MOL1         0.0960
      16    H11     18.551033   18.107949   24.620395 H          1 MOL1         0.0960
      17    C6      20.477947   19.104691   24.457481 C.3        1 MOL1        -0.1450
      18    H12     20.902371   19.968950   23.932006 H          1 MOL1         0.0960
      19    H13     21.075447   18.229486   24.169861 H          1 MOL1         0.0960
      20    C7      20.625217   19.354564   25.970928 C.3        1 MOL1         0.0172
      21    H14     21.668148   19.591175   26.198646 H          1 MOL1         0.0934
      22    H15     20.009981   20.209306   26.264699 H          1 MOL1         0.0934
      23    N1      20.226941   18.169632   26.829032 N.4        1 MOL1        -0.5956
      24    H16     19.243720   17.915364   26.693293 H          1 MOL1         0.3624
      25    H17     20.351136   18.364669   27.828446 H          1 MOL1         0.3624
      26    H18     20.787498   17.338578   26.614326 H          1 MOL1         0.3624
@<TRIPOS>BOND
    1     1     2    1
    2     1     3    1
    3     1     4    1
    4     1     5    1
    5     5     6    1
    6     5     7    1
    7     5     8    1
    8     8     9    1
    9     8    10    1
   10     8    11    1
   11    11    12    1
   12    11    13    1
   13    11    14    1
   14    14    15    1
   15    14    16    1
   16    14    17    1
   17    17    18    1
   18    17    19    1
   19    17    20    1
   20    20    21    1
   21    20    22    1
   22    20    23    1
   23    23    24    1
   24    23    25    1
   25    23    26    1
@<TRIPOS>SUBSTRUCTURE
       1 MOL1            1 RESIDUE      1      MOL     
@<SCITEGIC>MOL_PROPERTY
VM2 Rank
SciTegic.value.IntegerValue
172

@<SCITEGIC>MOL_PROPERTY
Conf_Id
SciTegic.value.IntegerValue
1366

@<SCITEGIC>MOL_PROPERTY
Probability
SciTegic.value.DoubleValue
0.00

@<SCITEGIC>MOL_PROPERTY
Sum Probability
SciTegic.value.DoubleValue
99.95

@<SCITEGIC>MOL_PROPERTY
Delta G
SciTegic.value.DoubleValue
4.507

@<SCITEGIC>MOL_PROPERTY
G
SciTegic.value.DoubleValue
52.768

@<SCITEGIC>MOL_PROPERTY
E
SciTegic.value.DoubleValue
19.898

@<SCITEGIC>MOL_PROPERTY
-TS
SciTegic.value.DoubleValue
32.870

@<SCITEGIC>MOL_PROPERTY
U+W
SciTegic.value.DoubleValue
-1.563

@<SCITEGIC>MOL_PROPERTY
U
SciTegic.value.DoubleValue
52.213

@<SCITEGIC>MOL_PROPERTY
W
SciTegic.value.DoubleValue
-53.777

@<SCITEGIC>MOL_PROPERTY
W(PB)
SciTegic.value.DoubleValue
-56.015

@<SCITEGIC>MOL_PROPERTY
W(SA)
SciTegic.value.DoubleValue
2.238

@<SCITEGIC>MOL_PROPERTY
Valence
SciTegic.value.DoubleValue
6.034

@<SCITEGIC>MOL_PROPERTY
Coulomb
SciTegic.value.DoubleValue
45.240

@<SCITEGIC>MOL_PROPERTY
VdW
SciTegic.value.DoubleValue
0.939

@<SCITEGIC>MOL_PROPERTY
VdW6
SciTegic.value.DoubleValue
-8.400

@<SCITEGIC>MOL_PROPERTY
VdW12
SciTegic.value.DoubleValue
9.339

@<SCITEGIC>MOL_PROPERTY
Bond
SciTegic.value.DoubleValue
0.287

@<SCITEGIC>MOL_PROPERTY
Angle
SciTegic.value.DoubleValue
1.514

@<SCITEGIC>MOL_PROPERTY
Pdih
SciTegic.value.DoubleValue
4.234

@<SCITEGIC>MOL_PROPERTY
Idih
SciTegic.value.DoubleValue
0.000

@<SCITEGIC>MOL_PROPERTY
Tether
SciTegic.value.DoubleValue
0.000

@<TRIPOS>MOLECULE
guest-s14_vm2.mol2 : vm2 ligand conformer 173
          26          25           1
SMALL
USER_CHARGES
 
@<TRIPOS>ATOM
       1    C1      20.176676   19.193417   19.714381 C.3        1 MOL1        -0.2400
       2    H1      20.655391   18.879013   18.777949 H          1 MOL1         0.0971
       3    H2      19.185337   18.725116   19.750203 H          1 MOL1         0.0971
       4    H3      20.042480   20.282141   19.673499 H          1 MOL1         0.0971
       5    C2      21.042883   18.785033   20.927625 C.3        1 MOL1        -0.1385
       6    H4      22.060979   19.171734   20.780125 H          1 MOL1         0.0960
       7    H5      21.132929   17.690424   20.965947 H          1 MOL1         0.0960
       8    C3      20.503302   19.313295   22.278904 C.3        1 MOL1        -0.1409
       9    H6      21.247027   19.085874   23.049875 H          1 MOL1         0.0960
      10    H7      20.427811   20.408516   22.237099 H          1 MOL1         0.0960
      11    C4      19.128948   18.711227   22.669849 C.3        1 MOL1        -0.1409
      12    H8      19.172642   17.613775   22.646175 H          1 MOL1         0.0960
      13    H9      18.393400   19.002482   21.908781 H          1 MOL1         0.0960
      14    C5      18.598247   19.192402   24.045873 C.3        1 MOL1        -0.1409
      15    H10     18.879065   20.239572   24.220373 H          1 MOL1         0.0960
      16    H11     17.500292   19.188898   24.001690 H          1 MOL1         0.0960
      17    C6      19.011119   18.303731   25.249485 C.3        1 MOL1        -0.1450
      18    H12     18.665983   17.276144   25.074301 H          1 MOL1         0.0960
      19    H13     18.481348   18.650438   26.146679 H          1 MOL1         0.0960
      20    C7      20.521289   18.271343   25.551876 C.3        1 MOL1         0.0172
      21    H14     20.705689   17.604462   26.398479 H          1 MOL1         0.0934
      22    H15     21.063790   17.877003   24.689622 H          1 MOL1         0.0934
      23    N1      21.098537   19.628551   25.903008 N.4        1 MOL1        -0.5956
      24    H16     22.103696   19.576152   26.100670 H          1 MOL1         0.3624
      25    H17     20.650423   20.027103   26.734474 H          1 MOL1         0.3624
      26    H18     20.973100   20.300502   25.139948 H          1 MOL1         0.3624
@<TRIPOS>BOND
    1     1     2    1
    2     1     3    1
    3     1     4    1
    4     1     5    1
    5     5     6    1
    6     5     7    1
    7     5     8    1
    8     8     9    1
    9     8    10    1
   10     8    11    1
   11    11    12    1
   12    11    13    1
   13    11    14    1
   14    14    15    1
   15    14    16    1
   16    14    17    1
   17    17    18    1
   18    17    19    1
   19    17    20    1
   20    20    21    1
   21    20    22    1
   22    20    23    1
   23    23    24    1
   24    23    25    1
   25    23    26    1
@<TRIPOS>SUBSTRUCTURE
       1 MOL1            1 RESIDUE      1      MOL     
@<SCITEGIC>MOL_PROPERTY
VM2 Rank
SciTegic.value.IntegerValue
173

@<SCITEGIC>MOL_PROPERTY
Conf_Id
SciTegic.value.IntegerValue
751

@<SCITEGIC>MOL_PROPERTY
Probability
SciTegic.value.DoubleValue
0.00

@<SCITEGIC>MOL_PROPERTY
Sum Probability
SciTegic.value.DoubleValue
99.95

@<SCITEGIC>MOL_PROPERTY
Delta G
SciTegic.value.DoubleValue
4.508

@<SCITEGIC>MOL_PROPERTY
G
SciTegic.value.DoubleValue
52.769

@<SCITEGIC>MOL_PROPERTY
E
SciTegic.value.DoubleValue
19.779

@<SCITEGIC>MOL_PROPERTY
-TS
SciTegic.value.DoubleValue
32.990

@<SCITEGIC>MOL_PROPERTY
U+W
SciTegic.value.DoubleValue
-1.683

@<SCITEGIC>MOL_PROPERTY
U
SciTegic.value.DoubleValue
52.488

@<SCITEGIC>MOL_PROPERTY
W
SciTegic.value.DoubleValue
-54.171

@<SCITEGIC>MOL_PROPERTY
W(PB)
SciTegic.value.DoubleValue
-56.424

@<SCITEGIC>MOL_PROPERTY
W(SA)
SciTegic.value.DoubleValue
2.253

@<SCITEGIC>MOL_PROPERTY
Valence
SciTegic.value.DoubleValue
5.467

@<SCITEGIC>MOL_PROPERTY
Coulomb
SciTegic.value.DoubleValue
46.392

@<SCITEGIC>MOL_PROPERTY
VdW
SciTegic.value.DoubleValue
0.629

@<SCITEGIC>MOL_PROPERTY
VdW6
SciTegic.value.DoubleValue
-8.780

@<SCITEGIC>MOL_PROPERTY
VdW12
SciTegic.value.DoubleValue
9.409

@<SCITEGIC>MOL_PROPERTY
Bond
SciTegic.value.DoubleValue
0.279

@<SCITEGIC>MOL_PROPERTY
Angle
SciTegic.value.DoubleValue
1.627

@<SCITEGIC>MOL_PROPERTY
Pdih
SciTegic.value.DoubleValue
3.561

@<SCITEGIC>MOL_PROPERTY
Idih
SciTegic.value.DoubleValue
0.000

@<SCITEGIC>MOL_PROPERTY
Tether
SciTegic.value.DoubleValue
0.000

@<TRIPOS>MOLECULE
guest-s14_vm2.mol2 : vm2 ligand conformer 174
          26          25           1
SMALL
USER_CHARGES
 
@<TRIPOS>ATOM
       1    C1      18.962599   20.102070   21.087212 C.3        1 MOL1        -0.2400
       2    H1      18.594478   19.990603   22.112383 H          1 MOL1         0.0971
       3    H2      19.566875   21.017201   21.039796 H          1 MOL1         0.0971
       4    H3      18.089176   20.246504   20.438274 H          1 MOL1         0.0971
       5    C2      19.780212   18.873973   20.623940 C.3        1 MOL1        -0.1385
       6    H4      20.046350   19.027026   19.568650 H          1 MOL1         0.0960
       7    H5      19.156811   17.969442   20.649274 H          1 MOL1         0.0960
       8    C3      21.086595   18.650949   21.429577 C.3        1 MOL1        -0.1409
       9    H6      21.835353   18.232952   20.742573 H          1 MOL1         0.0960
      10    H7      21.504168   19.611295   21.758933 H          1 MOL1         0.0960
      11    C4      20.961311   17.663720   22.621787 C.3        1 MOL1        -0.1409
      12    H8      21.961151   17.501164   23.047304 H          1 MOL1         0.0960
      13    H9      20.640929   16.685810   22.236840 H          1 MOL1         0.0960
      14    C5      20.001297   18.084548   23.762181 C.3        1 MOL1        -0.1409
      15    H10     18.977065   18.167271   23.377708 H          1 MOL1         0.0960
      16    H11     19.977661   17.272018   24.500246 H          1 MOL1         0.0960
      17    C6      20.419950   19.399048   24.467694 C.3        1 MOL1        -0.1450
      18    H12     20.454534   20.219559   23.740914 H          1 MOL1         0.0960
      19    H13     21.434997   19.299456   24.874372 H          1 MOL1         0.0960
      20    C7      19.450751   19.801848   25.595697 C.3        1 MOL1         0.0172
      21    H14     19.744723   20.776371   25.994978 H          1 MOL1         0.0934
      22    H15     18.436831   19.889014   25.196020 H          1 MOL1         0.0934
      23    N1      19.418285   18.822846   26.752913 N.4        1 MOL1        -0.5956
      24    H16     19.112687   17.891655   26.454064 H          1 MOL1         0.3624
      25    H17     18.774810   19.127453   27.491420 H          1 MOL1         0.3624
      26    H18     20.341248   18.714696   27.185810 H          1 MOL1         0.3624
@<TRIPOS>BOND
    1     1     2    1
    2     1     3    1
    3     1     4    1
    4     1     5    1
    5     5     6    1
    6     5     7    1
    7     5     8    1
    8     8     9    1
    9     8    10    1
   10     8    11    1
   11    11    12    1
   12    11    13    1
   13    11    14    1
   14    14    15    1
   15    14    16    1
   16    14    17    1
   17    17    18    1
   18    17    19    1
   19    17    20    1
   20    20    21    1
   21    20    22    1
   22    20    23    1
   23    23    24    1
   24    23    25    1
   25    23    26    1
@<TRIPOS>SUBSTRUCTURE
       1 MOL1            1 RESIDUE      1      MOL     
@<SCITEGIC>MOL_PROPERTY
VM2 Rank
SciTegic.value.IntegerValue
174

@<SCITEGIC>MOL_PROPERTY
Conf_Id
SciTegic.value.IntegerValue
536

@<SCITEGIC>MOL_PROPERTY
Probability
SciTegic.value.DoubleValue
0.00

@<SCITEGIC>MOL_PROPERTY
Sum Probability
SciTegic.value.DoubleValue
99.95

@<SCITEGIC>MOL_PROPERTY
Delta G
SciTegic.value.DoubleValue
4.513

@<SCITEGIC>MOL_PROPERTY
G
SciTegic.value.DoubleValue
52.774

@<SCITEGIC>MOL_PROPERTY
E
SciTegic.value.DoubleValue
19.499

@<SCITEGIC>MOL_PROPERTY
-TS
SciTegic.value.DoubleValue
33.275

@<SCITEGIC>MOL_PROPERTY
U+W
SciTegic.value.DoubleValue
-1.963

@<SCITEGIC>MOL_PROPERTY
U
SciTegic.value.DoubleValue
51.929

@<SCITEGIC>MOL_PROPERTY
W
SciTegic.value.DoubleValue
-53.891

@<SCITEGIC>MOL_PROPERTY
W(PB)
SciTegic.value.DoubleValue
-56.113

@<SCITEGIC>MOL_PROPERTY
W(SA)
SciTegic.value.DoubleValue
2.222

@<SCITEGIC>MOL_PROPERTY
Valence
SciTegic.value.DoubleValue
5.867

@<SCITEGIC>MOL_PROPERTY
Coulomb
SciTegic.value.DoubleValue
45.498

@<SCITEGIC>MOL_PROPERTY
VdW
SciTegic.value.DoubleValue
0.563

@<SCITEGIC>MOL_PROPERTY
VdW6
SciTegic.value.DoubleValue
-9.057

@<SCITEGIC>MOL_PROPERTY
VdW12
SciTegic.value.DoubleValue
9.621

@<SCITEGIC>MOL_PROPERTY
Bond
SciTegic.value.DoubleValue
0.287

@<SCITEGIC>MOL_PROPERTY
Angle
SciTegic.value.DoubleValue
1.896

@<SCITEGIC>MOL_PROPERTY
Pdih
SciTegic.value.DoubleValue
3.685

@<SCITEGIC>MOL_PROPERTY
Idih
SciTegic.value.DoubleValue
0.000

@<SCITEGIC>MOL_PROPERTY
Tether
SciTegic.value.DoubleValue
0.000

@<TRIPOS>MOLECULE
guest-s14_vm2.mol2 : vm2 ligand conformer 175
          26          25           1
SMALL
USER_CHARGES
 
@<TRIPOS>ATOM
       1    C1      19.442211   20.418513   21.103163 C.3        1 MOL1        -0.2400
       2    H1      19.682275   21.297655   20.491338 H          1 MOL1         0.0971
       3    H2      18.366655   20.225254   20.999760 H          1 MOL1         0.0971
       4    H3      19.641455   20.681402   22.147243 H          1 MOL1         0.0971
       5    C2      20.271183   19.197912   20.640267 C.3        1 MOL1        -0.1385
       6    H4      21.345526   19.413602   20.722189 H          1 MOL1         0.0960
       7    H5      20.075149   19.046020   19.569571 H          1 MOL1         0.0960
       8    C3      19.926206   17.885260   21.390844 C.3        1 MOL1        -0.1409
       9    H6      18.864852   17.869738   21.670831 H          1 MOL1         0.0960
      10    H7      20.048437   17.053820   20.682959 H          1 MOL1         0.0960
      11    C4      20.826892   17.575058   22.617312 C.3        1 MOL1        -0.1409
      12    H8      21.868857   17.496159   22.277870 H          1 MOL1         0.0960
      13    H9      20.564317   16.579434   23.000660 H          1 MOL1         0.0960
      14    C5      20.763746   18.587716   23.787678 C.3        1 MOL1        -0.1409
      15    H10     21.485131   18.266811   24.550650 H          1 MOL1         0.0960
      16    H11     21.107371   19.573050   23.448929 H          1 MOL1         0.0960
      17    C6      19.359086   18.699055   24.432240 C.3        1 MOL1        -0.1450
      18    H12     19.033514   17.714824   24.794063 H          1 MOL1         0.0960
      19    H13     18.625557   19.012748   23.679794 H          1 MOL1         0.0960
      20    C7      19.316689   19.713374   25.591266 C.3        1 MOL1         0.0172
      21    H14     19.652877   20.691468   25.236753 H          1 MOL1         0.0934
      22    H15     18.287522   19.814760   25.946337 H          1 MOL1         0.0934
      23    N1      20.174987   19.322112   26.778231 N.4        1 MOL1        -0.5956
      24    H16     21.164233   19.245367   26.522649 H          1 MOL1         0.3624
      25    H17     19.892197   18.418300   27.170797 H          1 MOL1         0.3624
      26    H18     20.113172   20.010510   27.536206 H          1 MOL1         0.3624
@<TRIPOS>BOND
    1     1     2    1
    2     1     3    1
    3     1     4    1
    4     1     5    1
    5     5     6    1
    6     5     7    1
    7     5     8    1
    8     8     9    1
    9     8    10    1
   10     8    11    1
   11    11    12    1
   12    11    13    1
   13    11    14    1
   14    14    15    1
   15    14    16    1
   16    14    17    1
   17    17    18    1
   18    17    19    1
   19    17    20    1
   20    20    21    1
   21    20    22    1
   22    20    23    1
   23    23    24    1
   24    23    25    1
   25    23    26    1
@<TRIPOS>SUBSTRUCTURE
       1 MOL1            1 RESIDUE      1      MOL     
@<SCITEGIC>MOL_PROPERTY
VM2 Rank
SciTegic.value.IntegerValue
175

@<SCITEGIC>MOL_PROPERTY
Conf_Id
SciTegic.value.IntegerValue
1341

@<SCITEGIC>MOL_PROPERTY
Probability
SciTegic.value.DoubleValue
0.00

@<SCITEGIC>MOL_PROPERTY
Sum Probability
SciTegic.value.DoubleValue
99.96

@<SCITEGIC>MOL_PROPERTY
Delta G
SciTegic.value.DoubleValue
4.517

@<SCITEGIC>MOL_PROPERTY
G
SciTegic.value.DoubleValue
52.778

@<SCITEGIC>MOL_PROPERTY
E
SciTegic.value.DoubleValue
19.503

@<SCITEGIC>MOL_PROPERTY
-TS
SciTegic.value.DoubleValue
33.275

@<SCITEGIC>MOL_PROPERTY
U+W
SciTegic.value.DoubleValue
-1.959

@<SCITEGIC>MOL_PROPERTY
U
SciTegic.value.DoubleValue
51.929

@<SCITEGIC>MOL_PROPERTY
W
SciTegic.value.DoubleValue
-53.887

@<SCITEGIC>MOL_PROPERTY
W(PB)
SciTegic.value.DoubleValue
-56.122

@<SCITEGIC>MOL_PROPERTY
W(SA)
SciTegic.value.DoubleValue
2.235

@<SCITEGIC>MOL_PROPERTY
Valence
SciTegic.value.DoubleValue
5.867

@<SCITEGIC>MOL_PROPERTY
Coulomb
SciTegic.value.DoubleValue
45.498

@<SCITEGIC>MOL_PROPERTY
VdW
SciTegic.value.DoubleValue
0.563

@<SCITEGIC>MOL_PROPERTY
VdW6
SciTegic.value.DoubleValue
-9.057

@<SCITEGIC>MOL_PROPERTY
VdW12
SciTegic.value.DoubleValue
9.620

@<SCITEGIC>MOL_PROPERTY
Bond
SciTegic.value.DoubleValue
0.287

@<SCITEGIC>MOL_PROPERTY
Angle
SciTegic.value.DoubleValue
1.896

@<SCITEGIC>MOL_PROPERTY
Pdih
SciTegic.value.DoubleValue
3.684

@<SCITEGIC>MOL_PROPERTY
Idih
SciTegic.value.DoubleValue
0.000

@<SCITEGIC>MOL_PROPERTY
Tether
SciTegic.value.DoubleValue
0.000

@<TRIPOS>MOLECULE
guest-s14_vm2.mol2 : vm2 ligand conformer 176
          26          25           1
SMALL
USER_CHARGES
 
@<TRIPOS>ATOM
       1    C1      19.707373   20.474434   20.991472 C.3        1 MOL1        -0.2400
       2    H1      18.720286   20.277597   21.427234 H          1 MOL1         0.0971
       3    H2      20.335221   20.960842   21.749128 H          1 MOL1         0.0971
       4    H3      19.564870   21.184556   20.166684 H          1 MOL1         0.0971
       5    C2      20.361696   19.174101   20.476325 C.3        1 MOL1        -0.1385
       6    H4      21.254713   19.437438   19.892438 H          1 MOL1         0.0960
       7    H5      19.677843   18.673798   19.776510 H          1 MOL1         0.0960
       8    C3      20.780423   18.184196   21.593185 C.3        1 MOL1        -0.1409
       9    H6      21.280119   17.334410   21.108004 H          1 MOL1         0.0960
      10    H7      21.543137   18.646214   22.231738 H          1 MOL1         0.0960
      11    C4      19.604381   17.627474   22.441687 C.3        1 MOL1        -0.1409
      12    H8      19.822150   16.583560   22.706291 H          1 MOL1         0.0960
      13    H9      18.696451   17.589218   21.824270 H          1 MOL1         0.0960
      14    C5      19.308260   18.408552   23.748849 C.3        1 MOL1        -0.1409
      15    H10     19.161593   19.471946   23.530174 H          1 MOL1         0.0960
      16    H11     18.355430   18.045955   24.158748 H          1 MOL1         0.0960
      17    C6      20.407089   18.236941   24.828070 C.3        1 MOL1        -0.1450
      18    H12     21.359769   18.656529   24.482583 H          1 MOL1         0.0960
      19    H13     20.581131   17.166988   25.002935 H          1 MOL1         0.0960
      20    C7      20.025549   18.892748   26.169098 C.3        1 MOL1         0.0172
      21    H14     19.076305   18.481724   26.523182 H          1 MOL1         0.0934
      22    H15     20.793515   18.668158   26.914301 H          1 MOL1         0.0934
      23    N1      19.886229   20.400554   26.092314 N.4        1 MOL1        -0.5956
      24    H16     20.756447   20.847982   25.786648 H          1 MOL1         0.3624
      25    H17     19.643974   20.806942   27.002521 H          1 MOL1         0.3624
      26    H18     19.152994   20.680732   25.433788 H          1 MOL1         0.3624
@<TRIPOS>BOND
    1     1     2    1
    2     1     3    1
    3     1     4    1
    4     1     5    1
    5     5     6    1
    6     5     7    1
    7     5     8    1
    8     8     9    1
    9     8    10    1
   10     8    11    1
   11    11    12    1
   12    11    13    1
   13    11    14    1
   14    14    15    1
   15    14    16    1
   16    14    17    1
   17    17    18    1
   18    17    19    1
   19    17    20    1
   20    20    21    1
   21    20    22    1
   22    20    23    1
   23    23    24    1
   24    23    25    1
   25    23    26    1
@<TRIPOS>SUBSTRUCTURE
       1 MOL1            1 RESIDUE      1      MOL     
@<SCITEGIC>MOL_PROPERTY
VM2 Rank
SciTegic.value.IntegerValue
176

@<SCITEGIC>MOL_PROPERTY
Conf_Id
SciTegic.value.IntegerValue
798

@<SCITEGIC>MOL_PROPERTY
Probability
SciTegic.value.DoubleValue
0.00

@<SCITEGIC>MOL_PROPERTY
Sum Probability
SciTegic.value.DoubleValue
99.96

@<SCITEGIC>MOL_PROPERTY
Delta G
SciTegic.value.DoubleValue
4.525

@<SCITEGIC>MOL_PROPERTY
G
SciTegic.value.DoubleValue
52.786

@<SCITEGIC>MOL_PROPERTY
E
SciTegic.value.DoubleValue
19.970

@<SCITEGIC>MOL_PROPERTY
-TS
SciTegic.value.DoubleValue
32.816

@<SCITEGIC>MOL_PROPERTY
U+W
SciTegic.value.DoubleValue
-1.492

@<SCITEGIC>MOL_PROPERTY
U
SciTegic.value.DoubleValue
52.644

@<SCITEGIC>MOL_PROPERTY
W
SciTegic.value.DoubleValue
-54.137

@<SCITEGIC>MOL_PROPERTY
W(PB)
SciTegic.value.DoubleValue
-56.383

@<SCITEGIC>MOL_PROPERTY
W(SA)
SciTegic.value.DoubleValue
2.247

@<SCITEGIC>MOL_PROPERTY
Valence
SciTegic.value.DoubleValue
5.947

@<SCITEGIC>MOL_PROPERTY
Coulomb
SciTegic.value.DoubleValue
45.853

@<SCITEGIC>MOL_PROPERTY
VdW
SciTegic.value.DoubleValue
0.845

@<SCITEGIC>MOL_PROPERTY
VdW6
SciTegic.value.DoubleValue
-8.494

@<SCITEGIC>MOL_PROPERTY
VdW12
SciTegic.value.DoubleValue
9.339

@<SCITEGIC>MOL_PROPERTY
Bond
SciTegic.value.DoubleValue
0.292

@<SCITEGIC>MOL_PROPERTY
Angle
SciTegic.value.DoubleValue
1.527

@<SCITEGIC>MOL_PROPERTY
Pdih
SciTegic.value.DoubleValue
4.127

@<SCITEGIC>MOL_PROPERTY
Idih
SciTegic.value.DoubleValue
0.000

@<SCITEGIC>MOL_PROPERTY
Tether
SciTegic.value.DoubleValue
0.000

@<TRIPOS>MOLECULE
guest-s14_vm2.mol2 : vm2 ligand conformer 177
          26          25           1
SMALL
USER_CHARGES
 
@<TRIPOS>ATOM
       1    C1      20.363331   20.625043   20.712672 C.3        1 MOL1        -0.2400
       2    H1      19.676260   21.299216   21.240490 H          1 MOL1         0.0971
       3    H2      21.290120   21.177973   20.511884 H          1 MOL1         0.0971
       4    H3      19.911308   20.363405   19.747060 H          1 MOL1         0.0971
       5    C2      20.653089   19.361874   21.550330 C.3        1 MOL1        -0.1385
       6    H4      21.140116   19.659951   22.486697 H          1 MOL1         0.0960
       7    H5      21.367114   18.722931   21.012240 H          1 MOL1         0.0960
       8    C3      19.360774   18.564045   21.843738 C.3        1 MOL1        -0.1409
       9    H6      18.632869   19.194810   22.368864 H          1 MOL1         0.0960
      10    H7      18.887059   18.299527   20.888313 H          1 MOL1         0.0960
      11    C4      19.605491   17.258110   22.640504 C.3        1 MOL1        -0.1409
      12    H8      20.255555   16.601277   22.046190 H          1 MOL1         0.0960
      13    H9      18.651026   16.722259   22.735462 H          1 MOL1         0.0960
      14    C5      20.228214   17.421620   24.053731 C.3        1 MOL1        -0.1409
      15    H10     20.367458   16.412256   24.464922 H          1 MOL1         0.0960
      16    H11     21.237926   17.844861   23.984510 H          1 MOL1         0.0960
      17    C6      19.358929   18.224465   25.058444 C.3        1 MOL1        -0.1450
      18    H12     19.581833   17.881945   26.077702 H          1 MOL1         0.0960
      19    H13     18.297888   17.996832   24.891120 H          1 MOL1         0.0960
      20    C7      19.568230   19.752124   25.008307 C.3        1 MOL1         0.0172
      21    H14     19.420623   20.122180   23.992050 H          1 MOL1         0.0934
      22    H15     18.832932   20.237543   25.655743 H          1 MOL1         0.0934
      23    N1      20.942941   20.191719   25.473275 N.4        1 MOL1        -0.5956
      24    H16     21.049946   21.211135   25.434148 H          1 MOL1         0.3624
      25    H17     21.687356   19.787137   24.897891 H          1 MOL1         0.3624
      26    H18     21.123063   19.909893   26.442383 H          1 MOL1         0.3624
@<TRIPOS>BOND
    1     1     2    1
    2     1     3    1
    3     1     4    1
    4     1     5    1
    5     5     6    1
    6     5     7    1
    7     5     8    1
    8     8     9    1
    9     8    10    1
   10     8    11    1
   11    11    12    1
   12    11    13    1
   13    11    14    1
   14    14    15    1
   15    14    16    1
   16    14    17    1
   17    17    18    1
   18    17    19    1
   19    17    20    1
   20    20    21    1
   21    20    22    1
   22    20    23    1
   23    23    24    1
   24    23    25    1
   25    23    26    1
@<TRIPOS>SUBSTRUCTURE
       1 MOL1            1 RESIDUE      1      MOL     
@<SCITEGIC>MOL_PROPERTY
VM2 Rank
SciTegic.value.IntegerValue
177

@<SCITEGIC>MOL_PROPERTY
Conf_Id
SciTegic.value.IntegerValue
413

@<SCITEGIC>MOL_PROPERTY
Probability
SciTegic.value.DoubleValue
0.00

@<SCITEGIC>MOL_PROPERTY
Sum Probability
SciTegic.value.DoubleValue
99.96

@<SCITEGIC>MOL_PROPERTY
Delta G
SciTegic.value.DoubleValue
4.534

@<SCITEGIC>MOL_PROPERTY
G
SciTegic.value.DoubleValue
52.795

@<SCITEGIC>MOL_PROPERTY
E
SciTegic.value.DoubleValue
19.343

@<SCITEGIC>MOL_PROPERTY
-TS
SciTegic.value.DoubleValue
33.452

@<SCITEGIC>MOL_PROPERTY
U+W
SciTegic.value.DoubleValue
-2.119

@<SCITEGIC>MOL_PROPERTY
U
SciTegic.value.DoubleValue
52.359

@<SCITEGIC>MOL_PROPERTY
W
SciTegic.value.DoubleValue
-54.478

@<SCITEGIC>MOL_PROPERTY
W(PB)
SciTegic.value.DoubleValue
-56.700

@<SCITEGIC>MOL_PROPERTY
W(SA)
SciTegic.value.DoubleValue
2.222

@<SCITEGIC>MOL_PROPERTY
Valence
SciTegic.value.DoubleValue
5.321

@<SCITEGIC>MOL_PROPERTY
Coulomb
SciTegic.value.DoubleValue
46.894

@<SCITEGIC>MOL_PROPERTY
VdW
SciTegic.value.DoubleValue
0.144

@<SCITEGIC>MOL_PROPERTY
VdW6
SciTegic.value.DoubleValue
-9.549

@<SCITEGIC>MOL_PROPERTY
VdW12
SciTegic.value.DoubleValue
9.693

@<SCITEGIC>MOL_PROPERTY
Bond
SciTegic.value.DoubleValue
0.274

@<SCITEGIC>MOL_PROPERTY
Angle
SciTegic.value.DoubleValue
1.814

@<SCITEGIC>MOL_PROPERTY
Pdih
SciTegic.value.DoubleValue
3.233

@<SCITEGIC>MOL_PROPERTY
Idih
SciTegic.value.DoubleValue
0.000

@<SCITEGIC>MOL_PROPERTY
Tether
SciTegic.value.DoubleValue
0.000

@<TRIPOS>MOLECULE
guest-s14_vm2.mol2 : vm2 ligand conformer 178
          26          25           1
SMALL
USER_CHARGES
 
@<TRIPOS>ATOM
       1    C1      21.122416   19.880576   20.830323 C.3        1 MOL1        -0.2400
       2    H1      20.759641   20.597020   21.576956 H          1 MOL1         0.0971
       3    H2      22.199525   20.049707   20.703810 H          1 MOL1         0.0971
       4    H3      20.632786   20.107282   19.874408 H          1 MOL1         0.0971
       5    C2      20.849904   18.420351   21.258060 C.3        1 MOL1        -0.1385
       6    H4      21.359933   18.198040   22.203704 H          1 MOL1         0.0960
       7    H5      21.300392   17.748783   20.513962 H          1 MOL1         0.0960
       8    C3      19.342590   18.085302   21.370558 C.3        1 MOL1        -0.1409
       9    H6      18.878740   18.229143   20.385010 H          1 MOL1         0.0960
      10    H7      19.234797   17.015287   21.595322 H          1 MOL1         0.0960
      11    C4      18.537527   18.901486   22.417778 C.3        1 MOL1        -0.1409
      12    H8      17.485118   18.600758   22.321262 H          1 MOL1         0.0960
      13    H9      18.554580   19.971783   22.173679 H          1 MOL1         0.0960
      14    C5      18.961384   18.669661   23.892204 C.3        1 MOL1        -0.1409
      15    H10     18.062401   18.730206   24.521344 H          1 MOL1         0.0960
      16    H11     19.347160   17.648708   24.012000 H          1 MOL1         0.0960
      17    C6      19.983337   19.708581   24.419700 C.3        1 MOL1        -0.1450
      18    H12     19.579073   20.719176   24.275245 H          1 MOL1         0.0960
      19    H13     20.918382   19.664488   23.851175 H          1 MOL1         0.0960
      20    C7      20.295720   19.521784   25.916738 C.3        1 MOL1         0.0172
      21    H14     20.947040   20.332056   26.255524 H          1 MOL1         0.0934
      22    H15     19.368578   19.565244   26.494578 H          1 MOL1         0.0934
      23    N1      20.988121   18.211258   26.235639 N.4        1 MOL1        -0.5956
      24    H16     21.190424   18.121898   27.237322 H          1 MOL1         0.3624
      25    H17     21.881282   18.122123   25.740573 H          1 MOL1         0.3624
      26    H18     20.413263   17.404898   25.972622 H          1 MOL1         0.3624
@<TRIPOS>BOND
    1     1     2    1
    2     1     3    1
    3     1     4    1
    4     1     5    1
    5     5     6    1
    6     5     7    1
    7     5     8    1
    8     8     9    1
    9     8    10    1
   10     8    11    1
   11    11    12    1
   12    11    13    1
   13    11    14    1
   14    14    15    1
   15    14    16    1
   16    14    17    1
   17    17    18    1
   18    17    19    1
   19    17    20    1
   20    20    21    1
   21    20    22    1
   22    20    23    1
   23    23    24    1
   24    23    25    1
   25    23    26    1
@<TRIPOS>SUBSTRUCTURE
       1 MOL1            1 RESIDUE      1      MOL     
@<SCITEGIC>MOL_PROPERTY
VM2 Rank
SciTegic.value.IntegerValue
178

@<SCITEGIC>MOL_PROPERTY
Conf_Id
SciTegic.value.IntegerValue
975

@<SCITEGIC>MOL_PROPERTY
Probability
SciTegic.value.DoubleValue
0.00

@<SCITEGIC>MOL_PROPERTY
Sum Probability
SciTegic.value.DoubleValue
99.97

@<SCITEGIC>MOL_PROPERTY
Delta G
SciTegic.value.DoubleValue
4.545

@<SCITEGIC>MOL_PROPERTY
G
SciTegic.value.DoubleValue
52.806

@<SCITEGIC>MOL_PROPERTY
E
SciTegic.value.DoubleValue
19.544

@<SCITEGIC>MOL_PROPERTY
-TS
SciTegic.value.DoubleValue
33.262

@<SCITEGIC>MOL_PROPERTY
U+W
SciTegic.value.DoubleValue
-1.918

@<SCITEGIC>MOL_PROPERTY
U
SciTegic.value.DoubleValue
52.272

@<SCITEGIC>MOL_PROPERTY
W
SciTegic.value.DoubleValue
-54.189

@<SCITEGIC>MOL_PROPERTY
W(PB)
SciTegic.value.DoubleValue
-56.407

@<SCITEGIC>MOL_PROPERTY
W(SA)
SciTegic.value.DoubleValue
2.218

@<SCITEGIC>MOL_PROPERTY
Valence
SciTegic.value.DoubleValue
5.856

@<SCITEGIC>MOL_PROPERTY
Coulomb
SciTegic.value.DoubleValue
45.879

@<SCITEGIC>MOL_PROPERTY
VdW
SciTegic.value.DoubleValue
0.537

@<SCITEGIC>MOL_PROPERTY
VdW6
SciTegic.value.DoubleValue
-9.012

@<SCITEGIC>MOL_PROPERTY
VdW12
SciTegic.value.DoubleValue
9.549

@<SCITEGIC>MOL_PROPERTY
Bond
SciTegic.value.DoubleValue
0.284

@<SCITEGIC>MOL_PROPERTY
Angle
SciTegic.value.DoubleValue
1.818

@<SCITEGIC>MOL_PROPERTY
Pdih
SciTegic.value.DoubleValue
3.754

@<SCITEGIC>MOL_PROPERTY
Idih
SciTegic.value.DoubleValue
0.000

@<SCITEGIC>MOL_PROPERTY
Tether
SciTegic.value.DoubleValue
0.000

@<TRIPOS>MOLECULE
guest-s14_vm2.mol2 : vm2 ligand conformer 179
          26          25           1
SMALL
USER_CHARGES
 
@<TRIPOS>ATOM
       1    C1      20.036600   20.156678   20.035260 C.3        1 MOL1        -0.2400
       2    H1      21.041508   20.105078   19.596297 H          1 MOL1         0.0971
       3    H2      19.308910   20.137025   19.213625 H          1 MOL1         0.0971
       4    H3      19.937387   21.121041   20.550375 H          1 MOL1         0.0971
       5    C2      19.793756   18.981847   21.006246 C.3        1 MOL1        -0.1385
       6    H4      19.869040   18.033092   20.456858 H          1 MOL1         0.0960
       7    H5      18.768082   19.045485   21.393390 H          1 MOL1         0.0960
       8    C3      20.805966   18.990069   22.175610 C.3        1 MOL1        -0.1409
       9    H6      21.824632   18.994555   21.763775 H          1 MOL1         0.0960
      10    H7      20.704090   19.924597   22.741082 H          1 MOL1         0.0960
      11    C4      20.666424   17.768584   23.121172 C.3        1 MOL1        -0.1409
      12    H8      21.462799   17.796269   23.874895 H          1 MOL1         0.0960
      13    H9      20.853356   16.854466   22.540841 H          1 MOL1         0.0960
      14    C5      19.289964   17.627151   23.824314 C.3        1 MOL1        -0.1409
      15    H10     18.524003   17.408095   23.068637 H          1 MOL1         0.0960
      16    H11     19.318274   16.741132   24.473476 H          1 MOL1         0.0960
      17    C6      18.822544   18.845442   24.664795 C.3        1 MOL1        -0.1450
      18    H12     17.805287   18.633533   25.019702 H          1 MOL1         0.0960
      19    H13     18.736002   19.744187   24.041132 H          1 MOL1         0.0960
      20    C7      19.694050   19.134826   25.904686 C.3        1 MOL1         0.0172
      21    H14     19.119431   19.739269   26.611720 H          1 MOL1         0.0934
      22    H15     19.956724   18.195263   26.398079 H          1 MOL1         0.0934
      23    N1      20.971696   19.894402   25.608918 N.4        1 MOL1        -0.5956
      24    H16     20.778760   20.820075   25.213277 H          1 MOL1         0.3624
      25    H17     21.560788   19.392907   24.938106 H          1 MOL1         0.3624
      26    H18     21.531012   20.041670   26.456201 H          1 MOL1         0.3624
@<TRIPOS>BOND
    1     1     2    1
    2     1     3    1
    3     1     4    1
    4     1     5    1
    5     5     6    1
    6     5     7    1
    7     5     8    1
    8     8     9    1
    9     8    10    1
   10     8    11    1
   11    11    12    1
   12    11    13    1
   13    11    14    1
   14    14    15    1
   15    14    16    1
   16    14    17    1
   17    17    18    1
   18    17    19    1
   19    17    20    1
   20    20    21    1
   21    20    22    1
   22    20    23    1
   23    23    24    1
   24    23    25    1
   25    23    26    1
@<TRIPOS>SUBSTRUCTURE
       1 MOL1            1 RESIDUE      1      MOL     
@<SCITEGIC>MOL_PROPERTY
VM2 Rank
SciTegic.value.IntegerValue
179

@<SCITEGIC>MOL_PROPERTY
Conf_Id
SciTegic.value.IntegerValue
269

@<SCITEGIC>MOL_PROPERTY
Probability
SciTegic.value.DoubleValue
0.00

@<SCITEGIC>MOL_PROPERTY
Sum Probability
SciTegic.value.DoubleValue
99.97

@<SCITEGIC>MOL_PROPERTY
Delta G
SciTegic.value.DoubleValue
4.570

@<SCITEGIC>MOL_PROPERTY
G
SciTegic.value.DoubleValue
52.831

@<SCITEGIC>MOL_PROPERTY
E
SciTegic.value.DoubleValue
19.509

@<SCITEGIC>MOL_PROPERTY
-TS
SciTegic.value.DoubleValue
33.322

@<SCITEGIC>MOL_PROPERTY
U+W
SciTegic.value.DoubleValue
-1.953

@<SCITEGIC>MOL_PROPERTY
U
SciTegic.value.DoubleValue
52.118

@<SCITEGIC>MOL_PROPERTY
W
SciTegic.value.DoubleValue
-54.071

@<SCITEGIC>MOL_PROPERTY
W(PB)
SciTegic.value.DoubleValue
-56.282

@<SCITEGIC>MOL_PROPERTY
W(SA)
SciTegic.value.DoubleValue
2.211

@<SCITEGIC>MOL_PROPERTY
Valence
SciTegic.value.DoubleValue
4.669

@<SCITEGIC>MOL_PROPERTY
Coulomb
SciTegic.value.DoubleValue
47.148

@<SCITEGIC>MOL_PROPERTY
VdW
SciTegic.value.DoubleValue
0.301

@<SCITEGIC>MOL_PROPERTY
VdW6
SciTegic.value.DoubleValue
-9.413

@<SCITEGIC>MOL_PROPERTY
VdW12
SciTegic.value.DoubleValue
9.715

@<SCITEGIC>MOL_PROPERTY
Bond
SciTegic.value.DoubleValue
0.278

@<SCITEGIC>MOL_PROPERTY
Angle
SciTegic.value.DoubleValue
1.801

@<SCITEGIC>MOL_PROPERTY
Pdih
SciTegic.value.DoubleValue
2.590

@<SCITEGIC>MOL_PROPERTY
Idih
SciTegic.value.DoubleValue
0.000

@<SCITEGIC>MOL_PROPERTY
Tether
SciTegic.value.DoubleValue
0.000

@<TRIPOS>MOLECULE
guest-s14_vm2.mol2 : vm2 ligand conformer 180
          26          25           1
SMALL
USER_CHARGES
 
@<TRIPOS>ATOM
       1    C1      18.812323   19.884100   20.962217 C.3        1 MOL1        -0.2400
       2    H1      18.253931   20.320097   20.123790 H          1 MOL1         0.0971
       3    H2      18.084200   19.475239   21.674606 H          1 MOL1         0.0971
       4    H3      19.359996   20.700019   21.449352 H          1 MOL1         0.0971
       5    C2      19.774357   18.787091   20.456810 C.3        1 MOL1        -0.1385
       6    H4      20.534731   19.240210   19.805496 H          1 MOL1         0.0960
       7    H5      19.209388   18.088592   19.823831 H          1 MOL1         0.0960
       8    C3      20.467625   17.977746   21.582405 C.3        1 MOL1        -0.1409
       9    H6      19.714351   17.439060   22.170052 H          1 MOL1         0.0960
      10    H7      21.074840   17.199185   21.100361 H          1 MOL1         0.0960
      11    C4      21.401022   18.812329   22.501764 C.3        1 MOL1        -0.1409
      12    H8      21.821463   19.650267   21.928971 H          1 MOL1         0.0960
      13    H9      22.262018   18.192638   22.787881 H          1 MOL1         0.0960
      14    C5      20.738881   19.351832   23.796744 C.3        1 MOL1        -0.1409
      15    H10     21.427238   20.070896   24.262029 H          1 MOL1         0.0960
      16    H11     19.830310   19.913090   23.552585 H          1 MOL1         0.0960
      17    C6      20.413839   18.241498   24.827812 C.3        1 MOL1        -0.1450
      18    H12     21.319586   17.653550   25.026829 H          1 MOL1         0.0960
      19    H13     19.669802   17.543374   24.425266 H          1 MOL1         0.0960
      20    C7      19.899366   18.809020   26.164694 C.3        1 MOL1         0.0172
      21    H14     19.768374   17.991899   26.879322 H          1 MOL1         0.0934
      22    H15     20.633909   19.506869   26.575589 H          1 MOL1         0.0934
      23    N1      18.573587   19.535384   26.048553 N.4        1 MOL1        -0.5956
      24    H16     18.253319   19.889818   26.956364 H          1 MOL1         0.3624
      25    H17     17.834500   18.923001   25.688495 H          1 MOL1         0.3624
      26    H18     18.635871   20.339960   25.417231 H          1 MOL1         0.3624
@<TRIPOS>BOND
    1     1     2    1
    2     1     3    1
    3     1     4    1
    4     1     5    1
    5     5     6    1
    6     5     7    1
    7     5     8    1
    8     8     9    1
    9     8    10    1
   10     8    11    1
   11    11    12    1
   12    11    13    1
   13    11    14    1
   14    14    15    1
   15    14    16    1
   16    14    17    1
   17    17    18    1
   18    17    19    1
   19    17    20    1
   20    20    21    1
   21    20    22    1
   22    20    23    1
   23    23    24    1
   24    23    25    1
   25    23    26    1
@<TRIPOS>SUBSTRUCTURE
       1 MOL1            1 RESIDUE      1      MOL     
@<SCITEGIC>MOL_PROPERTY
VM2 Rank
SciTegic.value.IntegerValue
180

@<SCITEGIC>MOL_PROPERTY
Conf_Id
SciTegic.value.IntegerValue
561

@<SCITEGIC>MOL_PROPERTY
Probability
SciTegic.value.DoubleValue
0.00

@<SCITEGIC>MOL_PROPERTY
Sum Probability
SciTegic.value.DoubleValue
99.97

@<SCITEGIC>MOL_PROPERTY
Delta G
SciTegic.value.DoubleValue
4.570

@<SCITEGIC>MOL_PROPERTY
G
SciTegic.value.DoubleValue
52.831

@<SCITEGIC>MOL_PROPERTY
E
SciTegic.value.DoubleValue
20.017

@<SCITEGIC>MOL_PROPERTY
-TS
SciTegic.value.DoubleValue
32.814

@<SCITEGIC>MOL_PROPERTY
U+W
SciTegic.value.DoubleValue
-1.445

@<SCITEGIC>MOL_PROPERTY
U
SciTegic.value.DoubleValue
52.645

@<SCITEGIC>MOL_PROPERTY
W
SciTegic.value.DoubleValue
-54.090

@<SCITEGIC>MOL_PROPERTY
W(PB)
SciTegic.value.DoubleValue
-56.310

@<SCITEGIC>MOL_PROPERTY
W(SA)
SciTegic.value.DoubleValue
2.220

@<SCITEGIC>MOL_PROPERTY
Valence
SciTegic.value.DoubleValue
5.946

@<SCITEGIC>MOL_PROPERTY
Coulomb
SciTegic.value.DoubleValue
45.853

@<SCITEGIC>MOL_PROPERTY
VdW
SciTegic.value.DoubleValue
0.845

@<SCITEGIC>MOL_PROPERTY
VdW6
SciTegic.value.DoubleValue
-8.494

@<SCITEGIC>MOL_PROPERTY
VdW12
SciTegic.value.DoubleValue
9.339

@<SCITEGIC>MOL_PROPERTY
Bond
SciTegic.value.DoubleValue
0.292

@<SCITEGIC>MOL_PROPERTY
Angle
SciTegic.value.DoubleValue
1.530

@<SCITEGIC>MOL_PROPERTY
Pdih
SciTegic.value.DoubleValue
4.124

@<SCITEGIC>MOL_PROPERTY
Idih
SciTegic.value.DoubleValue
0.000

@<SCITEGIC>MOL_PROPERTY
Tether
SciTegic.value.DoubleValue
0.000

@<TRIPOS>MOLECULE
guest-s14_vm2.mol2 : vm2 ligand conformer 181
          26          25           1
SMALL
USER_CHARGES
 
@<TRIPOS>ATOM
       1    C1      19.019229   19.484819   20.001283 C.3        1 MOL1        -0.2400
       2    H1      18.147911   19.939281   20.490620 H          1 MOL1         0.0971
       3    H2      19.360406   20.171050   19.215352 H          1 MOL1         0.0971
       4    H3      18.693566   18.554523   19.517876 H          1 MOL1         0.0971
       5    C2      20.148839   19.216341   21.018100 C.3        1 MOL1        -0.1385
       6    H4      20.473972   20.172044   21.450373 H          1 MOL1         0.0960
       7    H5      21.016780   18.791064   20.495178 H          1 MOL1         0.0960
       8    C3      19.690597   18.253464   22.138338 C.3        1 MOL1        -0.1409
       9    H6      18.845382   18.697081   22.678979 H          1 MOL1         0.0960
      10    H7      19.306770   17.331732   21.679647 H          1 MOL1         0.0960
      11    C4      20.823802   17.872511   23.126415 C.3        1 MOL1        -0.1409
      12    H8      21.617676   17.359264   22.566343 H          1 MOL1         0.0960
      13    H9      20.451528   17.128350   23.841058 H          1 MOL1         0.0960
      14    C5      21.459979   19.060261   23.896860 C.3        1 MOL1        -0.1409
      15    H10     22.232956   18.666015   24.570891 H          1 MOL1         0.0960
      16    H11     21.996312   19.701307   23.184726 H          1 MOL1         0.0960
      17    C6      20.484294   19.942848   24.720391 C.3        1 MOL1        -0.1450
      18    H12     19.721268   20.394869   24.074129 H          1 MOL1         0.0960
      19    H13     21.060820   20.783464   25.128631 H          1 MOL1         0.0960
      20    C7      19.819429   19.217551   25.908874 C.3        1 MOL1         0.0172
      21    H14     20.557038   18.591562   26.418073 H          1 MOL1         0.0934
      22    H15     19.456118   19.961459   26.623048 H          1 MOL1         0.0934
      23    N1      18.634831   18.351205   25.530740 N.4        1 MOL1        -0.5956
      24    H16     18.896167   17.633401   24.848847 H          1 MOL1         0.3624
      25    H17     17.878103   18.904646   25.116383 H          1 MOL1         0.3624
      26    H18     18.241108   17.868961   26.346113 H          1 MOL1         0.3624
@<TRIPOS>BOND
    1     1     2    1
    2     1     3    1
    3     1     4    1
    4     1     5    1
    5     5     6    1
    6     5     7    1
    7     5     8    1
    8     8     9    1
    9     8    10    1
   10     8    11    1
   11    11    12    1
   12    11    13    1
   13    11    14    1
   14    14    15    1
   15    14    16    1
   16    14    17    1
   17    17    18    1
   18    17    19    1
   19    17    20    1
   20    20    21    1
   21    20    22    1
   22    20    23    1
   23    23    24    1
   24    23    25    1
   25    23    26    1
@<TRIPOS>SUBSTRUCTURE
       1 MOL1            1 RESIDUE      1      MOL     
@<SCITEGIC>MOL_PROPERTY
VM2 Rank
SciTegic.value.IntegerValue
181

@<SCITEGIC>MOL_PROPERTY
Conf_Id
SciTegic.value.IntegerValue
275

@<SCITEGIC>MOL_PROPERTY
Probability
SciTegic.value.DoubleValue
0.00

@<SCITEGIC>MOL_PROPERTY
Sum Probability
SciTegic.value.DoubleValue
99.98

@<SCITEGIC>MOL_PROPERTY
Delta G
SciTegic.value.DoubleValue
4.590

@<SCITEGIC>MOL_PROPERTY
G
SciTegic.value.DoubleValue
52.851

@<SCITEGIC>MOL_PROPERTY
E
SciTegic.value.DoubleValue
19.529

@<SCITEGIC>MOL_PROPERTY
-TS
SciTegic.value.DoubleValue
33.322

@<SCITEGIC>MOL_PROPERTY
U+W
SciTegic.value.DoubleValue
-1.933

@<SCITEGIC>MOL_PROPERTY
U
SciTegic.value.DoubleValue
52.118

@<SCITEGIC>MOL_PROPERTY
W
SciTegic.value.DoubleValue
-54.050

@<SCITEGIC>MOL_PROPERTY
W(PB)
SciTegic.value.DoubleValue
-56.271

@<SCITEGIC>MOL_PROPERTY
W(SA)
SciTegic.value.DoubleValue
2.220

@<SCITEGIC>MOL_PROPERTY
Valence
SciTegic.value.DoubleValue
4.669

@<SCITEGIC>MOL_PROPERTY
Coulomb
SciTegic.value.DoubleValue
47.148

@<SCITEGIC>MOL_PROPERTY
VdW
SciTegic.value.DoubleValue
0.301

@<SCITEGIC>MOL_PROPERTY
VdW6
SciTegic.value.DoubleValue
-9.413

@<SCITEGIC>MOL_PROPERTY
VdW12
SciTegic.value.DoubleValue
9.714

@<SCITEGIC>MOL_PROPERTY
Bond
SciTegic.value.DoubleValue
0.278

@<SCITEGIC>MOL_PROPERTY
Angle
SciTegic.value.DoubleValue
1.801

@<SCITEGIC>MOL_PROPERTY
Pdih
SciTegic.value.DoubleValue
2.590

@<SCITEGIC>MOL_PROPERTY
Idih
SciTegic.value.DoubleValue
0.000

@<SCITEGIC>MOL_PROPERTY
Tether
SciTegic.value.DoubleValue
0.000

@<TRIPOS>MOLECULE
guest-s14_vm2.mol2 : vm2 ligand conformer 182
          26          25           1
SMALL
USER_CHARGES
 
@<TRIPOS>ATOM
       1    C1      21.009900   20.222891   21.186964 C.3        1 MOL1        -0.2400
       2    H1      21.360318   20.180620   22.224602 H          1 MOL1         0.0971
       3    H2      21.818904   20.658401   20.586316 H          1 MOL1         0.0971
       4    H3      20.148994   20.901809   21.133611 H          1 MOL1         0.0971
       5    C2      20.645459   18.817528   20.661502 C.3        1 MOL1        -0.1385
       6    H4      21.502016   18.143012   20.799533 H          1 MOL1         0.0960
       7    H5      20.479862   18.880048   19.576864 H          1 MOL1         0.0960
       8    C3      19.383947   18.197231   21.314572 C.3        1 MOL1        -0.1409
       9    H6      18.502340   18.814370   21.093470 H          1 MOL1         0.0960
      10    H7      19.199402   17.232228   20.822528 H          1 MOL1         0.0960
      11    C4      19.497660   17.945175   22.840800 C.3        1 MOL1        -0.1409
      12    H8      20.543680   17.741976   23.105382 H          1 MOL1         0.0960
      13    H9      18.939875   17.029719   23.081862 H          1 MOL1         0.0960
      14    C5      18.921636   19.099324   23.701313 C.3        1 MOL1        -0.1409
      15    H10     19.452453   20.036304   23.499190 H          1 MOL1         0.0960
      16    H11     17.877869   19.276492   23.407674 H          1 MOL1         0.0960
      17    C6      18.956005   18.798465   25.220757 C.3        1 MOL1        -0.1450
      18    H12     18.342602   17.911557   25.428062 H          1 MOL1         0.0960
      19    H13     18.487204   19.628408   25.765934 H          1 MOL1         0.0960
      20    C7      20.372556   18.562099   25.782719 C.3        1 MOL1         0.0172
      21    H14     20.305118   18.326425   26.848271 H          1 MOL1         0.0934
      22    H15     20.834808   17.711044   25.276183 H          1 MOL1         0.0934
      23    N1      21.293837   19.756286   25.632372 N.4        1 MOL1        -0.5956
      24    H16     22.224174   19.570636   26.022731 H          1 MOL1         0.3624
      25    H17     20.925940   20.582599   26.115037 H          1 MOL1         0.3624
      26    H18     21.423344   20.010308   24.648645 H          1 MOL1         0.3624
@<TRIPOS>BOND
    1     1     2    1
    2     1     3    1
    3     1     4    1
    4     1     5    1
    5     5     6    1
    6     5     7    1
    7     5     8    1
    8     8     9    1
    9     8    10    1
   10     8    11    1
   11    11    12    1
   12    11    13    1
   13    11    14    1
   14    14    15    1
   15    14    16    1
   16    14    17    1
   17    17    18    1
   18    17    19    1
   19    17    20    1
   20    20    21    1
   21    20    22    1
   22    20    23    1
   23    23    24    1
   24    23    25    1
   25    23    26    1
@<TRIPOS>SUBSTRUCTURE
       1 MOL1            1 RESIDUE      1      MOL     
@<SCITEGIC>MOL_PROPERTY
VM2 Rank
SciTegic.value.IntegerValue
182

@<SCITEGIC>MOL_PROPERTY
Conf_Id
SciTegic.value.IntegerValue
1089

@<SCITEGIC>MOL_PROPERTY
Probability
SciTegic.value.DoubleValue
0.00

@<SCITEGIC>MOL_PROPERTY
Sum Probability
SciTegic.value.DoubleValue
99.98

@<SCITEGIC>MOL_PROPERTY
Delta G
SciTegic.value.DoubleValue
4.776

@<SCITEGIC>MOL_PROPERTY
G
SciTegic.value.DoubleValue
53.037

@<SCITEGIC>MOL_PROPERTY
E
SciTegic.value.DoubleValue
20.122

@<SCITEGIC>MOL_PROPERTY
-TS
SciTegic.value.DoubleValue
32.916

@<SCITEGIC>MOL_PROPERTY
U+W
SciTegic.value.DoubleValue
-1.340

@<SCITEGIC>MOL_PROPERTY
U
SciTegic.value.DoubleValue
52.694

@<SCITEGIC>MOL_PROPERTY
W
SciTegic.value.DoubleValue
-54.034

@<SCITEGIC>MOL_PROPERTY
W(PB)
SciTegic.value.DoubleValue
-56.244

@<SCITEGIC>MOL_PROPERTY
W(SA)
SciTegic.value.DoubleValue
2.210

@<SCITEGIC>MOL_PROPERTY
Valence
SciTegic.value.DoubleValue
5.523

@<SCITEGIC>MOL_PROPERTY
Coulomb
SciTegic.value.DoubleValue
46.643

@<SCITEGIC>MOL_PROPERTY
VdW
SciTegic.value.DoubleValue
0.528

@<SCITEGIC>MOL_PROPERTY
VdW6
SciTegic.value.DoubleValue
-8.872

@<SCITEGIC>MOL_PROPERTY
VdW12
SciTegic.value.DoubleValue
9.400

@<SCITEGIC>MOL_PROPERTY
Bond
SciTegic.value.DoubleValue
0.267

@<SCITEGIC>MOL_PROPERTY
Angle
SciTegic.value.DoubleValue
1.434

@<SCITEGIC>MOL_PROPERTY
Pdih
SciTegic.value.DoubleValue
3.822

@<SCITEGIC>MOL_PROPERTY
Idih
SciTegic.value.DoubleValue
0.000

@<SCITEGIC>MOL_PROPERTY
Tether
SciTegic.value.DoubleValue
0.000

@<TRIPOS>MOLECULE
guest-s14_vm2.mol2 : vm2 ligand conformer 183
          26          25           1
SMALL
USER_CHARGES
 
@<TRIPOS>ATOM
       1    C1      18.523625   18.582539   21.103154 C.3        1 MOL1        -0.2400
       2    H1      18.376032   18.212379   22.124167 H          1 MOL1         0.0971
       3    H2      18.240527   19.642542   21.068722 H          1 MOL1         0.0971
       4    H3      17.834269   18.029406   20.452182 H          1 MOL1         0.0971
       5    C2      19.982269   18.379361   20.639425 C.3        1 MOL1        -0.1385
       6    H4      20.040844   18.588993   19.562209 H          1 MOL1         0.0960
       7    H5      20.259114   17.322542   20.758617 H          1 MOL1         0.0960
       8    C3      21.016517   19.273902   21.369365 C.3        1 MOL1        -0.1409
       9    H6      21.998433   19.078173   20.916677 H          1 MOL1         0.0960
      10    H7      20.805988   20.333640   21.170340 H          1 MOL1         0.0960
      11    C4      21.131927   19.023679   22.895769 C.3        1 MOL1        -0.1409
      12    H8      22.180396   19.168372   23.190843 H          1 MOL1         0.0960
      13    H9      20.896034   17.974597   23.117652 H          1 MOL1         0.0960
      14    C5      20.257146   19.981034   23.745820 C.3        1 MOL1        -0.1409
      15    H10     20.517161   21.018692   23.495381 H          1 MOL1         0.0960
      16    H11     19.197617   19.868140   23.490476 H          1 MOL1         0.0960
      17    C6      20.449206   19.785025   25.270652 C.3        1 MOL1        -0.1450
      18    H12     19.844549   20.525500   25.810915 H          1 MOL1         0.0960
      19    H13     21.494725   19.993874   25.533553 H          1 MOL1         0.0960
      20    C7      20.085640   18.373212   25.773539 C.3        1 MOL1         0.0172
      21    H14     20.710712   17.629331   25.273061 H          1 MOL1         0.0934
      22    H15     20.278529   18.310301   26.847936 H          1 MOL1         0.0934
      23    N1      18.634669   18.000249   25.543277 N.4        1 MOL1        -0.5956
      24    H16     18.396837   18.010814   24.547110 H          1 MOL1         0.3624
      25    H17     17.996518   18.648432   26.016274 H          1 MOL1         0.3624
      26    H18     18.422835   17.060434   25.895764 H          1 MOL1         0.3624
@<TRIPOS>BOND
    1     1     2    1
    2     1     3    1
    3     1     4    1
    4     1     5    1
    5     5     6    1
    6     5     7    1
    7     5     8    1
    8     8     9    1
    9     8    10    1
   10     8    11    1
   11    11    12    1
   12    11    13    1
   13    11    14    1
   14    14    15    1
   15    14    16    1
   16    14    17    1
   17    17    18    1
   18    17    19    1
   19    17    20    1
   20    20    21    1
   21    20    22    1
   22    20    23    1
   23    23    24    1
   24    23    25    1
   25    23    26    1
@<TRIPOS>SUBSTRUCTURE
       1 MOL1            1 RESIDUE      1      MOL     
@<SCITEGIC>MOL_PROPERTY
VM2 Rank
SciTegic.value.IntegerValue
183

@<SCITEGIC>MOL_PROPERTY
Conf_Id
SciTegic.value.IntegerValue
537

@<SCITEGIC>MOL_PROPERTY
Probability
SciTegic.value.DoubleValue
0.00

@<SCITEGIC>MOL_PROPERTY
Sum Probability
SciTegic.value.DoubleValue
99.98

@<SCITEGIC>MOL_PROPERTY
Delta G
SciTegic.value.DoubleValue
4.798

@<SCITEGIC>MOL_PROPERTY
G
SciTegic.value.DoubleValue
53.059

@<SCITEGIC>MOL_PROPERTY
E
SciTegic.value.DoubleValue
20.143

@<SCITEGIC>MOL_PROPERTY
-TS
SciTegic.value.DoubleValue
32.916

@<SCITEGIC>MOL_PROPERTY
U+W
SciTegic.value.DoubleValue
-1.319

@<SCITEGIC>MOL_PROPERTY
U
SciTegic.value.DoubleValue
52.694

@<SCITEGIC>MOL_PROPERTY
W
SciTegic.value.DoubleValue
-54.013

@<SCITEGIC>MOL_PROPERTY
W(PB)
SciTegic.value.DoubleValue
-56.216

@<SCITEGIC>MOL_PROPERTY
W(SA)
SciTegic.value.DoubleValue
2.204

@<SCITEGIC>MOL_PROPERTY
Valence
SciTegic.value.DoubleValue
5.523

@<SCITEGIC>MOL_PROPERTY
Coulomb
SciTegic.value.DoubleValue
46.642

@<SCITEGIC>MOL_PROPERTY
VdW
SciTegic.value.DoubleValue
0.528

@<SCITEGIC>MOL_PROPERTY
VdW6
SciTegic.value.DoubleValue
-8.872

@<SCITEGIC>MOL_PROPERTY
VdW12
SciTegic.value.DoubleValue
9.400

@<SCITEGIC>MOL_PROPERTY
Bond
SciTegic.value.DoubleValue
0.267

@<SCITEGIC>MOL_PROPERTY
Angle
SciTegic.value.DoubleValue
1.435

@<SCITEGIC>MOL_PROPERTY
Pdih
SciTegic.value.DoubleValue
3.821

@<SCITEGIC>MOL_PROPERTY
Idih
SciTegic.value.DoubleValue
0.000

@<SCITEGIC>MOL_PROPERTY
Tether
SciTegic.value.DoubleValue
0.000

@<TRIPOS>MOLECULE
guest-s14_vm2.mol2 : vm2 ligand conformer 184
          26          25           1
SMALL
USER_CHARGES
 
@<TRIPOS>ATOM
       1    C1      20.303299   20.630552   21.547695 C.3        1 MOL1        -0.2400
       2    H1      20.591709   20.566253   22.601435 H          1 MOL1         0.0971
       3    H2      20.965993   21.363509   21.069703 H          1 MOL1         0.0971
       4    H3      19.280110   21.024770   21.497213 H          1 MOL1         0.0971
       5    C2      20.406443   19.264172   20.831293 C.3        1 MOL1        -0.1385
       6    H4      21.439481   18.891498   20.868284 H          1 MOL1         0.0960
       7    H5      20.182410   19.425836   19.767545 H          1 MOL1         0.0960
       8    C3      19.427130   18.193284   21.378669 C.3        1 MOL1        -0.1409
       9    H6      18.497104   18.663184   21.724377 H          1 MOL1         0.0960
      10    H7      19.130010   17.552018   20.537347 H          1 MOL1         0.0960
      11    C4      20.016928   17.263488   22.473616 C.3        1 MOL1        -0.1409
      12    H8      20.894345   16.745273   22.062885 H          1 MOL1         0.0960
      13    H9      19.283880   16.475182   22.693575 H          1 MOL1         0.0960
      14    C5      20.421245   17.946432   23.803510 C.3        1 MOL1        -0.1409
      15    H10     20.849290   17.181769   24.466413 H          1 MOL1         0.0960
      16    H11     21.227797   18.665683   23.618628 H          1 MOL1         0.0960
      17    C6      19.234186   18.625816   24.531242 C.3        1 MOL1        -0.1450
      18    H12     18.425735   17.894900   24.664651 H          1 MOL1         0.0960
      19    H13     18.821567   19.439688   23.922537 H          1 MOL1         0.0960
      20    C7      19.625950   19.177391   25.915353 C.3        1 MOL1         0.0172
      21    H14     18.735033   19.564505   26.417273 H          1 MOL1         0.0934
      22    H15     20.039802   18.372254   26.528413 H          1 MOL1         0.0934
      23    N1      20.645818   20.297864   25.859620 N.4        1 MOL1        -0.5956
      24    H16     20.878775   20.645543   26.796219 H          1 MOL1         0.3624
      25    H17     20.302279   21.098796   25.320116 H          1 MOL1         0.3624
      26    H18     21.522602   19.991181   25.427202 H          1 MOL1         0.3624
@<TRIPOS>BOND
    1     1     2    1
    2     1     3    1
    3     1     4    1
    4     1     5    1
    5     5     6    1
    6     5     7    1
    7     5     8    1
    8     8     9    1
    9     8    10    1
   10     8    11    1
   11    11    12    1
   12    11    13    1
   13    11    14    1
   14    14    15    1
   15    14    16    1
   16    14    17    1
   17    17    18    1
   18    17    19    1
   19    17    20    1
   20    20    21    1
   21    20    22    1
   22    20    23    1
   23    23    24    1
   24    23    25    1
   25    23    26    1
@<TRIPOS>SUBSTRUCTURE
       1 MOL1            1 RESIDUE      1      MOL     
@<SCITEGIC>MOL_PROPERTY
VM2 Rank
SciTegic.value.IntegerValue
184

@<SCITEGIC>MOL_PROPERTY
Conf_Id
SciTegic.value.IntegerValue
1220

@<SCITEGIC>MOL_PROPERTY
Probability
SciTegic.value.DoubleValue
0.00

@<SCITEGIC>MOL_PROPERTY
Sum Probability
SciTegic.value.DoubleValue
99.98

@<SCITEGIC>MOL_PROPERTY
Delta G
SciTegic.value.DoubleValue
4.818

@<SCITEGIC>MOL_PROPERTY
G
SciTegic.value.DoubleValue
53.079

@<SCITEGIC>MOL_PROPERTY
E
SciTegic.value.DoubleValue
19.768

@<SCITEGIC>MOL_PROPERTY
-TS
SciTegic.value.DoubleValue
33.311

@<SCITEGIC>MOL_PROPERTY
U+W
SciTegic.value.DoubleValue
-1.694

@<SCITEGIC>MOL_PROPERTY
U
SciTegic.value.DoubleValue
52.676

@<SCITEGIC>MOL_PROPERTY
W
SciTegic.value.DoubleValue
-54.370

@<SCITEGIC>MOL_PROPERTY
W(PB)
SciTegic.value.DoubleValue
-56.549

@<SCITEGIC>MOL_PROPERTY
W(SA)
SciTegic.value.DoubleValue
2.179

@<SCITEGIC>MOL_PROPERTY
Valence
SciTegic.value.DoubleValue
5.835

@<SCITEGIC>MOL_PROPERTY
Coulomb
SciTegic.value.DoubleValue
46.484

@<SCITEGIC>MOL_PROPERTY
VdW
SciTegic.value.DoubleValue
0.357

@<SCITEGIC>MOL_PROPERTY
VdW6
SciTegic.value.DoubleValue
-9.272

@<SCITEGIC>MOL_PROPERTY
VdW12
SciTegic.value.DoubleValue
9.629

@<SCITEGIC>MOL_PROPERTY
Bond
SciTegic.value.DoubleValue
0.284

@<SCITEGIC>MOL_PROPERTY
Angle
SciTegic.value.DoubleValue
1.857

@<SCITEGIC>MOL_PROPERTY
Pdih
SciTegic.value.DoubleValue
3.695

@<SCITEGIC>MOL_PROPERTY
Idih
SciTegic.value.DoubleValue
0.000

@<SCITEGIC>MOL_PROPERTY
Tether
SciTegic.value.DoubleValue
0.000

@<TRIPOS>MOLECULE
guest-s14_vm2.mol2 : vm2 ligand conformer 185
          26          25           1
SMALL
USER_CHARGES
 
@<TRIPOS>ATOM
       1    C1      18.408828   19.378805   21.484380 C.3        1 MOL1        -0.2400
       2    H1      18.306081   19.055934   22.524994 H          1 MOL1         0.0971
       3    H2      18.449053   20.475636   21.469601 H          1 MOL1         0.0971
       4    H3      17.498158   19.072291   20.953723 H          1 MOL1         0.0971
       5    C2      19.657722   18.769515   20.806226 C.3        1 MOL1        -0.1385
       6    H4      19.646234   19.071731   19.749618 H          1 MOL1         0.0960
       7    H5      19.594478   17.672509   20.806440 H          1 MOL1         0.0960
       8    C3      20.999632   19.232223   21.431250 C.3        1 MOL1        -0.1409
       9    H6      21.744417   19.279328   20.624776 H          1 MOL1         0.0960
      10    H7      20.915459   20.260966   21.805241 H          1 MOL1         0.0960
      11    C4      21.572586   18.291297   22.525636 C.3        1 MOL1        -0.1409
      12    H8      22.573685   18.648692   22.803550 H          1 MOL1         0.0960
      13    H9      21.724742   17.293921   22.090669 H          1 MOL1         0.0960
      14    C5      20.724877   18.147063   23.813692 C.3        1 MOL1        -0.1409
      15    H10     19.756905   17.693810   23.569516 H          1 MOL1         0.0960
      16    H11     21.229482   17.433026   24.479199 H          1 MOL1         0.0960
      17    C6      20.530857   19.482635   24.574528 C.3        1 MOL1        -0.1450
      18    H12     19.972440   20.200131   23.960906 H          1 MOL1         0.0960
      19    H13     21.512683   19.934656   24.767724 H          1 MOL1         0.0960
      20    C7      19.806309   19.296717   25.921354 C.3        1 MOL1         0.0172
      21    H14     20.356090   18.581512   26.539077 H          1 MOL1         0.0934
      22    H15     19.775458   20.252289   26.451866 H          1 MOL1         0.0934
      23    N1      18.380189   18.800745   25.783935 N.4        1 MOL1        -0.5956
      24    H16     18.339418   17.887567   25.321082 H          1 MOL1         0.3624
      25    H17     17.803380   19.447364   25.236440 H          1 MOL1         0.3624
      26    H18     17.925933   18.694541   26.697575 H          1 MOL1         0.3624
@<TRIPOS>BOND
    1     1     2    1
    2     1     3    1
    3     1     4    1
    4     1     5    1
    5     5     6    1
    6     5     7    1
    7     5     8    1
    8     8     9    1
    9     8    10    1
   10     8    11    1
   11    11    12    1
   12    11    13    1
   13    11    14    1
   14    14    15    1
   15    14    16    1
   16    14    17    1
   17    17    18    1
   18    17    19    1
   19    17    20    1
   20    20    21    1
   21    20    22    1
   22    20    23    1
   23    23    24    1
   24    23    25    1
   25    23    26    1
@<TRIPOS>SUBSTRUCTURE
       1 MOL1            1 RESIDUE      1      MOL     
@<SCITEGIC>MOL_PROPERTY
VM2 Rank
SciTegic.value.IntegerValue
185

@<SCITEGIC>MOL_PROPERTY
Conf_Id
SciTegic.value.IntegerValue
78

@<SCITEGIC>MOL_PROPERTY
Probability
SciTegic.value.DoubleValue
0.00

@<SCITEGIC>MOL_PROPERTY
Sum Probability
SciTegic.value.DoubleValue
99.99

@<SCITEGIC>MOL_PROPERTY
Delta G
SciTegic.value.DoubleValue
4.910

@<SCITEGIC>MOL_PROPERTY
G
SciTegic.value.DoubleValue
53.171

@<SCITEGIC>MOL_PROPERTY
E
SciTegic.value.DoubleValue
19.860

@<SCITEGIC>MOL_PROPERTY
-TS
SciTegic.value.DoubleValue
33.311

@<SCITEGIC>MOL_PROPERTY
U+W
SciTegic.value.DoubleValue
-1.602

@<SCITEGIC>MOL_PROPERTY
U
SciTegic.value.DoubleValue
52.676

@<SCITEGIC>MOL_PROPERTY
W
SciTegic.value.DoubleValue
-54.278

@<SCITEGIC>MOL_PROPERTY
W(PB)
SciTegic.value.DoubleValue
-56.460

@<SCITEGIC>MOL_PROPERTY
W(SA)
SciTegic.value.DoubleValue
2.182

@<SCITEGIC>MOL_PROPERTY
Valence
SciTegic.value.DoubleValue
5.835

@<SCITEGIC>MOL_PROPERTY
Coulomb
SciTegic.value.DoubleValue
46.484

@<SCITEGIC>MOL_PROPERTY
VdW
SciTegic.value.DoubleValue
0.357

@<SCITEGIC>MOL_PROPERTY
VdW6
SciTegic.value.DoubleValue
-9.272

@<SCITEGIC>MOL_PROPERTY
VdW12
SciTegic.value.DoubleValue
9.629

@<SCITEGIC>MOL_PROPERTY
Bond
SciTegic.value.DoubleValue
0.284

@<SCITEGIC>MOL_PROPERTY
Angle
SciTegic.value.DoubleValue
1.857

@<SCITEGIC>MOL_PROPERTY
Pdih
SciTegic.value.DoubleValue
3.694

@<SCITEGIC>MOL_PROPERTY
Idih
SciTegic.value.DoubleValue
0.000

@<SCITEGIC>MOL_PROPERTY
Tether
SciTegic.value.DoubleValue
0.000

@<TRIPOS>MOLECULE
guest-s14_vm2.mol2 : vm2 ligand conformer 186
          26          25           1
SMALL
USER_CHARGES
 
@<TRIPOS>ATOM
       1    C1      18.757181   17.955465   21.051100 C.3        1 MOL1        -0.2400
       2    H1      18.078168   18.436425   21.765024 H          1 MOL1         0.0971
       3    H2      18.638872   18.449945   20.078248 H          1 MOL1         0.0971
       4    H3      18.430349   16.913649   20.938418 H          1 MOL1         0.0971
       5    C2      20.226947   18.010906   21.527335 C.3        1 MOL1        -0.1385
       6    H4      20.836462   17.409926   20.838163 H          1 MOL1         0.0960
       7    H5      20.315303   17.522820   22.503835 H          1 MOL1         0.0960
       8    C3      20.812209   19.447054   21.566435 C.3        1 MOL1        -0.1409
       9    H6      21.894246   19.396253   21.749363 H          1 MOL1         0.0960
      10    H7      20.705618   19.880014   20.562213 H          1 MOL1         0.0960
      11    C4      20.161437   20.418749   22.589655 C.3        1 MOL1        -0.1409
      12    H8      19.084229   20.236828   22.680467 H          1 MOL1         0.0960
      13    H9      20.243209   21.434083   22.177754 H          1 MOL1         0.0960
      14    C5      20.830230   20.444801   23.990945 C.3        1 MOL1        -0.1409
      15    H10     21.884073   20.735461   23.881111 H          1 MOL1         0.0960
      16    H11     20.361343   21.243016   24.582935 H          1 MOL1         0.0960
      17    C6      20.755778   19.127698   24.799180 C.3        1 MOL1        -0.1450
      18    H12     21.218308   19.290844   25.781635 H          1 MOL1         0.0960
      19    H13     21.355838   18.352750   24.307389 H          1 MOL1         0.0960
      20    C7      19.310671   18.635269   25.002221 C.3        1 MOL1         0.0172
      21    H14     18.729655   19.403848   25.518960 H          1 MOL1         0.0934
      22    H15     18.845328   18.447010   24.031370 H          1 MOL1         0.0934
      23    N1      19.226546   17.359059   25.814129 N.4        1 MOL1        -0.5956
      24    H16     19.622589   17.477421   26.752349 H          1 MOL1         0.3624
      25    H17     19.732717   16.587391   25.367989 H          1 MOL1         0.3624
      26    H18     18.256430   17.049254   25.937068 H          1 MOL1         0.3624
@<TRIPOS>BOND
    1     1     2    1
    2     1     3    1
    3     1     4    1
    4     1     5    1
    5     5     6    1
    6     5     7    1
    7     5     8    1
    8     8     9    1
    9     8    10    1
   10     8    11    1
   11    11    12    1
   12    11    13    1
   13    11    14    1
   14    14    15    1
   15    14    16    1
   16    14    17    1
   17    17    18    1
   18    17    19    1
   19    17    20    1
   20    20    21    1
   21    20    22    1
   22    20    23    1
   23    23    24    1
   24    23    25    1
   25    23    26    1
@<TRIPOS>SUBSTRUCTURE
       1 MOL1            1 RESIDUE      1      MOL     
@<SCITEGIC>MOL_PROPERTY
VM2 Rank
SciTegic.value.IntegerValue
186

@<SCITEGIC>MOL_PROPERTY
Conf_Id
SciTegic.value.IntegerValue
242

@<SCITEGIC>MOL_PROPERTY
Probability
SciTegic.value.DoubleValue
0.00

@<SCITEGIC>MOL_PROPERTY
Sum Probability
SciTegic.value.DoubleValue
99.99

@<SCITEGIC>MOL_PROPERTY
Delta G
SciTegic.value.DoubleValue
4.946

@<SCITEGIC>MOL_PROPERTY
G
SciTegic.value.DoubleValue
53.207

@<SCITEGIC>MOL_PROPERTY
E
SciTegic.value.DoubleValue
19.840

@<SCITEGIC>MOL_PROPERTY
-TS
SciTegic.value.DoubleValue
33.368

@<SCITEGIC>MOL_PROPERTY
U+W
SciTegic.value.DoubleValue
-1.622

@<SCITEGIC>MOL_PROPERTY
U
SciTegic.value.DoubleValue
52.777

@<SCITEGIC>MOL_PROPERTY
W
SciTegic.value.DoubleValue
-54.399

@<SCITEGIC>MOL_PROPERTY
W(PB)
SciTegic.value.DoubleValue
-56.621

@<SCITEGIC>MOL_PROPERTY
W(SA)
SciTegic.value.DoubleValue
2.222

@<SCITEGIC>MOL_PROPERTY
Valence
SciTegic.value.DoubleValue
6.161

@<SCITEGIC>MOL_PROPERTY
Coulomb
SciTegic.value.DoubleValue
46.342

@<SCITEGIC>MOL_PROPERTY
VdW
SciTegic.value.DoubleValue
0.273

@<SCITEGIC>MOL_PROPERTY
VdW6
SciTegic.value.DoubleValue
-9.540

@<SCITEGIC>MOL_PROPERTY
VdW12
SciTegic.value.DoubleValue
9.814

@<SCITEGIC>MOL_PROPERTY
Bond
SciTegic.value.DoubleValue
0.307

@<SCITEGIC>MOL_PROPERTY
Angle
SciTegic.value.DoubleValue
2.227

@<SCITEGIC>MOL_PROPERTY
Pdih
SciTegic.value.DoubleValue
3.628

@<SCITEGIC>MOL_PROPERTY
Idih
SciTegic.value.DoubleValue
0.000

@<SCITEGIC>MOL_PROPERTY
Tether
SciTegic.value.DoubleValue
0.000

@<TRIPOS>MOLECULE
guest-s14_vm2.mol2 : vm2 ligand conformer 187
          26          25           1
SMALL
USER_CHARGES
 
@<TRIPOS>ATOM
       1    C1      18.952303   19.610673   20.635094 C.3        1 MOL1        -0.2400
       2    H1      18.483597   19.496963   19.649067 H          1 MOL1         0.0971
       3    H2      18.274793   19.166763   21.371577 H          1 MOL1         0.0971
       4    H3      19.029126   20.685398   20.844596 H          1 MOL1         0.0971
       5    C2      20.346281   18.942018   20.647760 C.3        1 MOL1        -0.1385
       6    H4      20.929887   19.370348   19.820823 H          1 MOL1         0.0960
       7    H5      20.255600   17.869215   20.428089 H          1 MOL1         0.0960
       8    C3      21.138321   19.157593   21.963813 C.3        1 MOL1        -0.1409
       9    H6      22.206324   19.184093   21.706987 H          1 MOL1         0.0960
      10    H7      20.919584   20.146316   22.387811 H          1 MOL1         0.0960
      11    C4      20.955572   18.044197   23.030531 C.3        1 MOL1        -0.1409
      12    H8      21.687288   18.207784   23.832827 H          1 MOL1         0.0960
      13    H9      21.226546   17.077858   22.583593 H          1 MOL1         0.0960
      14    C5      19.541597   17.922336   23.655714 C.3        1 MOL1        -0.1409
      15    H10     18.826091   17.609390   22.885441 H          1 MOL1         0.0960
      16    H11     19.552119   17.101501   24.385099 H          1 MOL1         0.0960
      17    C6      19.025466   19.209819   24.351068 C.3        1 MOL1        -0.1450
      18    H12     18.034946   19.014957   24.782846 H          1 MOL1         0.0960
      19    H13     18.878001   20.001186   23.606045 H          1 MOL1         0.0960
      20    C7      19.961481   19.741415   25.454826 C.3        1 MOL1         0.0172
      21    H14     20.942142   19.968409   25.028634 H          1 MOL1         0.0934
      22    H15     19.548078   20.665423   25.868031 H          1 MOL1         0.0934
      23    N1      20.159978   18.770949   26.602194 N.4        1 MOL1        -0.5956
      24    H16     20.572276   17.888992   26.282882 H          1 MOL1         0.3624
      25    H17     19.273843   18.541925   27.063815 H          1 MOL1         0.3624
      26    H18     20.783256   19.153117   27.321580 H          1 MOL1         0.3624
@<TRIPOS>BOND
    1     1     2    1
    2     1     3    1
    3     1     4    1
    4     1     5    1
    5     5     6    1
    6     5     7    1
    7     5     8    1
    8     8     9    1
    9     8    10    1
   10     8    11    1
   11    11    12    1
   12    11    13    1
   13    11    14    1
   14    14    15    1
   15    14    16    1
   16    14    17    1
   17    17    18    1
   18    17    19    1
   19    17    20    1
   20    20    21    1
   21    20    22    1
   22    20    23    1
   23    23    24    1
   24    23    25    1
   25    23    26    1
@<TRIPOS>SUBSTRUCTURE
       1 MOL1            1 RESIDUE      1      MOL     
@<SCITEGIC>MOL_PROPERTY
VM2 Rank
SciTegic.value.IntegerValue
187

@<SCITEGIC>MOL_PROPERTY
Conf_Id
SciTegic.value.IntegerValue
278

@<SCITEGIC>MOL_PROPERTY
Probability
SciTegic.value.DoubleValue
0.00

@<SCITEGIC>MOL_PROPERTY
Sum Probability
SciTegic.value.DoubleValue
99.99

@<SCITEGIC>MOL_PROPERTY
Delta G
SciTegic.value.DoubleValue
4.949

@<SCITEGIC>MOL_PROPERTY
G
SciTegic.value.DoubleValue
53.210

@<SCITEGIC>MOL_PROPERTY
E
SciTegic.value.DoubleValue
19.693

@<SCITEGIC>MOL_PROPERTY
-TS
SciTegic.value.DoubleValue
33.517

@<SCITEGIC>MOL_PROPERTY
U+W
SciTegic.value.DoubleValue
-1.769

@<SCITEGIC>MOL_PROPERTY
U
SciTegic.value.DoubleValue
52.331

@<SCITEGIC>MOL_PROPERTY
W
SciTegic.value.DoubleValue
-54.099

@<SCITEGIC>MOL_PROPERTY
W(PB)
SciTegic.value.DoubleValue
-56.293

@<SCITEGIC>MOL_PROPERTY
W(SA)
SciTegic.value.DoubleValue
2.194

@<SCITEGIC>MOL_PROPERTY
Valence
SciTegic.value.DoubleValue
6.095

@<SCITEGIC>MOL_PROPERTY
Coulomb
SciTegic.value.DoubleValue
45.826

@<SCITEGIC>MOL_PROPERTY
VdW
SciTegic.value.DoubleValue
0.409

@<SCITEGIC>MOL_PROPERTY
VdW6
SciTegic.value.DoubleValue
-9.964

@<SCITEGIC>MOL_PROPERTY
VdW12
SciTegic.value.DoubleValue
10.373

@<SCITEGIC>MOL_PROPERTY
Bond
SciTegic.value.DoubleValue
0.316

@<SCITEGIC>MOL_PROPERTY
Angle
SciTegic.value.DoubleValue
2.141

@<SCITEGIC>MOL_PROPERTY
Pdih
SciTegic.value.DoubleValue
3.638

@<SCITEGIC>MOL_PROPERTY
Idih
SciTegic.value.DoubleValue
0.000

@<SCITEGIC>MOL_PROPERTY
Tether
SciTegic.value.DoubleValue
0.000

@<TRIPOS>MOLECULE
guest-s14_vm2.mol2 : vm2 ligand conformer 188
          26          25           1
SMALL
USER_CHARGES
 
@<TRIPOS>ATOM
       1    C1      20.634913   19.049490   19.854608 C.3        1 MOL1        -0.2400
       2    H1      21.046380   20.017817   20.165080 H          1 MOL1         0.0971
       3    H2      21.275342   18.661914   19.051762 H          1 MOL1         0.0971
       4    H3      19.635136   19.218660   19.434074 H          1 MOL1         0.0971
       5    C2      20.580734   18.050394   21.032552 C.3        1 MOL1        -0.1385
       6    H4      21.586907   17.924321   21.455753 H          1 MOL1         0.0960
       7    H5      20.284790   17.065147   20.645794 H          1 MOL1         0.0960
       8    C3      19.588876   18.463291   22.146913 C.3        1 MOL1        -0.1409
       9    H6      18.582601   18.571143   21.719234 H          1 MOL1         0.0960
      10    H7      19.526407   17.640234   22.869085 H          1 MOL1         0.0960
      11    C4      19.986771   19.774765   22.871258 C.3        1 MOL1        -0.1409
      12    H8      19.985530   20.598629   22.145700 H          1 MOL1         0.0960
      13    H9      21.016834   19.711080   23.242429 H          1 MOL1         0.0960
      14    C5      19.026882   20.163939   24.024700 C.3        1 MOL1        -0.1409
      15    H10     19.348181   21.131959   24.433437 H          1 MOL1         0.0960
      16    H11     18.025659   20.335736   23.606032 H          1 MOL1         0.0960
      17    C6      18.906179   19.148791   25.193231 C.3        1 MOL1        -0.1450
      18    H12     18.467469   18.203603   24.849458 H          1 MOL1         0.0960
      19    H13     18.189427   19.558959   25.916959 H          1 MOL1         0.0960
      20    C7      20.226796   18.881873   25.944883 C.3        1 MOL1         0.0172
      21    H14     20.781292   19.816976   26.060422 H          1 MOL1         0.0934
      22    H15     19.999541   18.496769   26.942631 H          1 MOL1         0.0934
      23    N1      21.129849   17.866456   25.272855 N.4        1 MOL1        -0.5956
      24    H16     21.363674   18.147104   24.315864 H          1 MOL1         0.3624
      25    H17     20.687158   16.943380   25.219721 H          1 MOL1         0.3624
      26    H18     22.012251   17.746165   25.782169 H          1 MOL1         0.3624
@<TRIPOS>BOND
    1     1     2    1
    2     1     3    1
    3     1     4    1
    4     1     5    1
    5     5     6    1
    6     5     7    1
    7     5     8    1
    8     8     9    1
    9     8    10    1
   10     8    11    1
   11    11    12    1
   12    11    13    1
   13    11    14    1
   14    14    15    1
   15    14    16    1
   16    14    17    1
   17    17    18    1
   18    17    19    1
   19    17    20    1
   20    20    21    1
   21    20    22    1
   22    20    23    1
   23    23    24    1
   24    23    25    1
   25    23    26    1
@<TRIPOS>SUBSTRUCTURE
       1 MOL1            1 RESIDUE      1      MOL     
@<SCITEGIC>MOL_PROPERTY
VM2 Rank
SciTegic.value.IntegerValue
188

@<SCITEGIC>MOL_PROPERTY
Conf_Id
SciTegic.value.IntegerValue
831

@<SCITEGIC>MOL_PROPERTY
Probability
SciTegic.value.DoubleValue
0.00

@<SCITEGIC>MOL_PROPERTY
Sum Probability
SciTegic.value.DoubleValue
99.99

@<SCITEGIC>MOL_PROPERTY
Delta G
SciTegic.value.DoubleValue
5.168

@<SCITEGIC>MOL_PROPERTY
G
SciTegic.value.DoubleValue
53.429

@<SCITEGIC>MOL_PROPERTY
E
SciTegic.value.DoubleValue
20.199

@<SCITEGIC>MOL_PROPERTY
-TS
SciTegic.value.DoubleValue
33.230

@<SCITEGIC>MOL_PROPERTY
U+W
SciTegic.value.DoubleValue
-1.263

@<SCITEGIC>MOL_PROPERTY
U
SciTegic.value.DoubleValue
52.436

@<SCITEGIC>MOL_PROPERTY
W
SciTegic.value.DoubleValue
-53.699

@<SCITEGIC>MOL_PROPERTY
W(PB)
SciTegic.value.DoubleValue
-55.916

@<SCITEGIC>MOL_PROPERTY
W(SA)
SciTegic.value.DoubleValue
2.217

@<SCITEGIC>MOL_PROPERTY
Valence
SciTegic.value.DoubleValue
4.797

@<SCITEGIC>MOL_PROPERTY
Coulomb
SciTegic.value.DoubleValue
47.143

@<SCITEGIC>MOL_PROPERTY
VdW
SciTegic.value.DoubleValue
0.497

@<SCITEGIC>MOL_PROPERTY
VdW6
SciTegic.value.DoubleValue
-9.252

@<SCITEGIC>MOL_PROPERTY
VdW12
SciTegic.value.DoubleValue
9.749

@<SCITEGIC>MOL_PROPERTY
Bond
SciTegic.value.DoubleValue
0.276

@<SCITEGIC>MOL_PROPERTY
Angle
SciTegic.value.DoubleValue
1.763

@<SCITEGIC>MOL_PROPERTY
Pdih
SciTegic.value.DoubleValue
2.758

@<SCITEGIC>MOL_PROPERTY
Idih
SciTegic.value.DoubleValue
0.000

@<SCITEGIC>MOL_PROPERTY
Tether
SciTegic.value.DoubleValue
0.000

@<TRIPOS>MOLECULE
guest-s14_vm2.mol2 : vm2 ligand conformer 189
          26          25           1
SMALL
USER_CHARGES
 
@<TRIPOS>ATOM
       1    C1      19.879358   19.138129   19.978587 C.3        1 MOL1        -0.2400
       2    H1      19.357526   20.039339   20.323585 H          1 MOL1         0.0971
       3    H2      20.853831   19.438830   19.572523 H          1 MOL1         0.0971
       4    H3      19.290791   18.709415   19.157245 H          1 MOL1         0.0971
       5    C2      20.046870   18.108955   21.119181 C.3        1 MOL1        -0.1385
       6    H4      20.467854   17.183963   20.701158 H          1 MOL1         0.0960
       7    H5      19.061383   17.836791   21.520107 H          1 MOL1         0.0960
       8    C3      20.972430   18.600452   22.260935 C.3        1 MOL1        -0.1409
       9    H6      21.089313   17.790219   22.991349 H          1 MOL1         0.0960
      10    H7      21.976468   18.775738   21.850703 H          1 MOL1         0.0960
      11    C4      20.499033   19.891809   22.981923 C.3        1 MOL1        -0.1409
      12    H8      20.522888   20.727412   22.269897 H          1 MOL1         0.0960
      13    H9      21.226573   20.163962   23.756023 H          1 MOL1         0.0960
      14    C5      19.080014   19.817820   23.605754 C.3        1 MOL1        -0.1409
      15    H10     18.858404   20.779874   24.087906 H          1 MOL1         0.0960
      16    H11     18.341484   19.720017   22.799029 H          1 MOL1         0.0960
      17    C6      18.844391   18.678869   24.633531 C.3        1 MOL1        -0.1450
      18    H12     19.017076   17.695585   24.178138 H          1 MOL1         0.0960
      19    H13     17.781559   18.694488   24.908837 H          1 MOL1         0.0960
      20    C7      19.661379   18.817293   25.935000 C.3        1 MOL1         0.0172
      21    H14     19.663747   19.861202   26.259733 H          1 MOL1         0.0934
      22    H15     19.187734   18.220063   26.718841 H          1 MOL1         0.0934
      23    N1      21.097526   18.345674   25.826088 N.4        1 MOL1        -0.5956
      24    H16     21.152006   17.348427   25.595566 H          1 MOL1         0.3624
      25    H17     21.608638   18.477917   26.705663 H          1 MOL1         0.3624
      26    H18     21.606737   18.855022   25.098299 H          1 MOL1         0.3624
@<TRIPOS>BOND
    1     1     2    1
    2     1     3    1
    3     1     4    1
    4     1     5    1
    5     5     6    1
    6     5     7    1
    7     5     8    1
    8     8     9    1
    9     8    10    1
   10     8    11    1
   11    11    12    1
   12    11    13    1
   13    11    14    1
   14    14    15    1
   15    14    16    1
   16    14    17    1
   17    17    18    1
   18    17    19    1
   19    17    20    1
   20    20    21    1
   21    20    22    1
   22    20    23    1
   23    23    24    1
   24    23    25    1
   25    23    26    1
@<TRIPOS>SUBSTRUCTURE
       1 MOL1            1 RESIDUE      1      MOL     
@<SCITEGIC>MOL_PROPERTY
VM2 Rank
SciTegic.value.IntegerValue
189

@<SCITEGIC>MOL_PROPERTY
Conf_Id
SciTegic.value.IntegerValue
253

@<SCITEGIC>MOL_PROPERTY
Probability
SciTegic.value.DoubleValue
0.00

@<SCITEGIC>MOL_PROPERTY
Sum Probability
SciTegic.value.DoubleValue
99.99

@<SCITEGIC>MOL_PROPERTY
Delta G
SciTegic.value.DoubleValue
5.213

@<SCITEGIC>MOL_PROPERTY
G
SciTegic.value.DoubleValue
53.474

@<SCITEGIC>MOL_PROPERTY
E
SciTegic.value.DoubleValue
19.848

@<SCITEGIC>MOL_PROPERTY
-TS
SciTegic.value.DoubleValue
33.626

@<SCITEGIC>MOL_PROPERTY
U+W
SciTegic.value.DoubleValue
-1.614

@<SCITEGIC>MOL_PROPERTY
U
SciTegic.value.DoubleValue
52.543

@<SCITEGIC>MOL_PROPERTY
W
SciTegic.value.DoubleValue
-54.157

@<SCITEGIC>MOL_PROPERTY
W(PB)
SciTegic.value.DoubleValue
-56.334

@<SCITEGIC>MOL_PROPERTY
W(SA)
SciTegic.value.DoubleValue
2.177

@<SCITEGIC>MOL_PROPERTY
Valence
SciTegic.value.DoubleValue
5.103

@<SCITEGIC>MOL_PROPERTY
Coulomb
SciTegic.value.DoubleValue
47.136

@<SCITEGIC>MOL_PROPERTY
VdW
SciTegic.value.DoubleValue
0.304

@<SCITEGIC>MOL_PROPERTY
VdW6
SciTegic.value.DoubleValue
-10.241

@<SCITEGIC>MOL_PROPERTY
VdW12
SciTegic.value.DoubleValue
10.545

@<SCITEGIC>MOL_PROPERTY
Bond
SciTegic.value.DoubleValue
0.320

@<SCITEGIC>MOL_PROPERTY
Angle
SciTegic.value.DoubleValue
2.105

@<SCITEGIC>MOL_PROPERTY
Pdih
SciTegic.value.DoubleValue
2.678

@<SCITEGIC>MOL_PROPERTY
Idih
SciTegic.value.DoubleValue
0.000

@<SCITEGIC>MOL_PROPERTY
Tether
SciTegic.value.DoubleValue
0.000

@<TRIPOS>MOLECULE
guest-s14_vm2.mol2 : vm2 ligand conformer 190
          26          25           1
SMALL
USER_CHARGES
 
@<TRIPOS>ATOM
       1    C1      19.809613   18.505896   19.827086 C.3        1 MOL1        -0.2400
       2    H1      19.950715   17.789445   19.007505 H          1 MOL1         0.0971
       3    H2      18.744208   18.501160   20.088326 H          1 MOL1         0.0971
       4    H3      20.067289   19.503578   19.448594 H          1 MOL1         0.0971
       5    C2      20.693509   18.124691   21.036258 C.3        1 MOL1        -0.1385
       6    H4      21.732517   18.018930   20.693981 H          1 MOL1         0.0960
       7    H5      20.393561   17.138120   21.415845 H          1 MOL1         0.0960
       8    C3      20.653090   19.164282   22.182420 C.3        1 MOL1        -0.1409
       9    H6      21.399691   18.874147   22.931597 H          1 MOL1         0.0960
      10    H7      20.970158   20.143849   21.798955 H          1 MOL1         0.0960
      11    C4      19.258722   19.295158   22.846930 C.3        1 MOL1        -0.1409
      12    H8      18.894368   18.312950   23.171533 H          1 MOL1         0.0960
      13    H9      18.536617   19.644190   22.097310 H          1 MOL1         0.0960
      14    C5      19.225683   20.294854   24.031322 C.3        1 MOL1        -0.1409
      15    H10     19.481625   21.294775   23.654632 H          1 MOL1         0.0960
      16    H11     18.191470   20.369969   24.394807 H          1 MOL1         0.0960
      17    C6      20.150807   19.968599   25.234759 C.3        1 MOL1        -0.1450
      18    H12     20.022817   20.766592   25.978115 H          1 MOL1         0.0960
      19    H13     21.207261   20.008239   24.940883 H          1 MOL1         0.0960
      20    C7      19.840882   18.627704   25.932043 C.3        1 MOL1         0.0172
      21    H14     20.237536   18.653550   26.950594 H          1 MOL1         0.0934
      22    H15     18.758712   18.484793   25.993012 H          1 MOL1         0.0934
      23    N1      20.448694   17.417816   25.250182 N.4        1 MOL1        -0.5956
      24    H16     20.188003   16.544611   25.721408 H          1 MOL1         0.3624
      25    H17     21.472896   17.460936   25.245934 H          1 MOL1         0.3624
      26    H18     20.143432   17.343364   24.275227 H          1 MOL1         0.3624
@<TRIPOS>BOND
    1     1     2    1
    2     1     3    1
    3     1     4    1
    4     1     5    1
    5     5     6    1
    6     5     7    1
    7     5     8    1
    8     8     9    1
    9     8    10    1
   10     8    11    1
   11    11    12    1
   12    11    13    1
   13    11    14    1
   14    14    15    1
   15    14    16    1
   16    14    17    1
   17    17    18    1
   18    17    19    1
   19    17    20    1
   20    20    21    1
   21    20    22    1
   22    20    23    1
   23    23    24    1
   24    23    25    1
   25    23    26    1
@<TRIPOS>SUBSTRUCTURE
       1 MOL1            1 RESIDUE      1      MOL     
@<SCITEGIC>MOL_PROPERTY
VM2 Rank
SciTegic.value.IntegerValue
190

@<SCITEGIC>MOL_PROPERTY
Conf_Id
SciTegic.value.IntegerValue
1602

@<SCITEGIC>MOL_PROPERTY
Probability
SciTegic.value.DoubleValue
0.00

@<SCITEGIC>MOL_PROPERTY
Sum Probability
SciTegic.value.DoubleValue
99.99

@<SCITEGIC>MOL_PROPERTY
Delta G
SciTegic.value.DoubleValue
5.220

@<SCITEGIC>MOL_PROPERTY
G
SciTegic.value.DoubleValue
53.481

@<SCITEGIC>MOL_PROPERTY
E
SciTegic.value.DoubleValue
20.251

@<SCITEGIC>MOL_PROPERTY
-TS
SciTegic.value.DoubleValue
33.230

@<SCITEGIC>MOL_PROPERTY
U+W
SciTegic.value.DoubleValue
-1.211

@<SCITEGIC>MOL_PROPERTY
U
SciTegic.value.DoubleValue
52.436

@<SCITEGIC>MOL_PROPERTY
W
SciTegic.value.DoubleValue
-53.647

@<SCITEGIC>MOL_PROPERTY
W(PB)
SciTegic.value.DoubleValue
-55.880

@<SCITEGIC>MOL_PROPERTY
W(SA)
SciTegic.value.DoubleValue
2.233

@<SCITEGIC>MOL_PROPERTY
Valence
SciTegic.value.DoubleValue
4.797

@<SCITEGIC>MOL_PROPERTY
Coulomb
SciTegic.value.DoubleValue
47.142

@<SCITEGIC>MOL_PROPERTY
VdW
SciTegic.value.DoubleValue
0.497

@<SCITEGIC>MOL_PROPERTY
VdW6
SciTegic.value.DoubleValue
-9.252

@<SCITEGIC>MOL_PROPERTY
VdW12
SciTegic.value.DoubleValue
9.749

@<SCITEGIC>MOL_PROPERTY
Bond
SciTegic.value.DoubleValue
0.276

@<SCITEGIC>MOL_PROPERTY
Angle
SciTegic.value.DoubleValue
1.763

@<SCITEGIC>MOL_PROPERTY
Pdih
SciTegic.value.DoubleValue
2.758

@<SCITEGIC>MOL_PROPERTY
Idih
SciTegic.value.DoubleValue
0.000

@<SCITEGIC>MOL_PROPERTY
Tether
SciTegic.value.DoubleValue
0.000

@<TRIPOS>MOLECULE
guest-s14_vm2.mol2 : vm2 ligand conformer 191
          26          25           1
SMALL
USER_CHARGES
 
@<TRIPOS>ATOM
       1    C1      19.640314   20.464658   21.156629 C.3        1 MOL1        -0.2400
       2    H1      20.150994   21.357239   20.772881 H          1 MOL1         0.0971
       3    H2      18.686777   20.367540   20.621639 H          1 MOL1         0.0971
       4    H3      19.420569   20.638792   22.216351 H          1 MOL1         0.0971
       5    C2      20.518527   19.209031   20.953727 C.3        1 MOL1        -0.1385
       6    H4      21.473563   19.321980   21.481554 H          1 MOL1         0.0960
       7    H5      20.777357   19.132399   19.888478 H          1 MOL1         0.0960
       8    C3      19.821383   17.894983   21.382798 C.3        1 MOL1        -0.1409
       9    H6      18.927771   17.755600   20.758954 H          1 MOL1         0.0960
      10    H7      20.482946   17.050669   21.145046 H          1 MOL1         0.0960
      11    C4      19.399131   17.798185   22.873818 C.3        1 MOL1        -0.1409
      12    H8      18.859857   16.848183   22.991601 H          1 MOL1         0.0960
      13    H9      18.662906   18.573820   23.116087 H          1 MOL1         0.0960
      14    C5      20.575678   17.796846   23.889034 C.3        1 MOL1        -0.1409
      15    H10     20.308404   17.144040   24.730593 H          1 MOL1         0.0960
      16    H11     21.456088   17.327267   23.429473 H          1 MOL1         0.0960
      17    C6      20.970145   19.187320   24.456281 C.3        1 MOL1        -0.1450
      18    H12     21.323241   19.840454   23.651299 H          1 MOL1         0.0960
      19    H13     21.824065   19.064552   25.135521 H          1 MOL1         0.0960
      20    C7      19.835539   19.907659   25.213689 C.3        1 MOL1         0.0172
      21    H14     20.196486   20.876721   25.568838 H          1 MOL1         0.0934
      22    H15     18.993766   20.087097   24.540594 H          1 MOL1         0.0934
      23    N1      19.320285   19.140317   26.415025 N.4        1 MOL1        -0.5956
      24    H16     20.061988   18.963647   27.100211 H          1 MOL1         0.3624
      25    H17     18.934430   18.230584   26.143967 H          1 MOL1         0.3624
      26    H18     18.576094   19.650368   26.902985 H          1 MOL1         0.3624
@<TRIPOS>BOND
    1     1     2    1
    2     1     3    1
    3     1     4    1
    4     1     5    1
    5     5     6    1
    6     5     7    1
    7     5     8    1
    8     8     9    1
    9     8    10    1
   10     8    11    1
   11    11    12    1
   12    11    13    1
   13    11    14    1
   14    14    15    1
   15    14    16    1
   16    14    17    1
   17    17    18    1
   18    17    19    1
   19    17    20    1
   20    20    21    1
   21    20    22    1
   22    20    23    1
   23    23    24    1
   24    23    25    1
   25    23    26    1
@<TRIPOS>SUBSTRUCTURE
       1 MOL1            1 RESIDUE      1      MOL     
@<SCITEGIC>MOL_PROPERTY
VM2 Rank
SciTegic.value.IntegerValue
191

@<SCITEGIC>MOL_PROPERTY
Conf_Id
SciTegic.value.IntegerValue
1101

@<SCITEGIC>MOL_PROPERTY
Probability
SciTegic.value.DoubleValue
0.00

@<SCITEGIC>MOL_PROPERTY
Sum Probability
SciTegic.value.DoubleValue
99.99

@<SCITEGIC>MOL_PROPERTY
Delta G
SciTegic.value.DoubleValue
5.282

@<SCITEGIC>MOL_PROPERTY
G
SciTegic.value.DoubleValue
53.543

@<SCITEGIC>MOL_PROPERTY
E
SciTegic.value.DoubleValue
19.971

@<SCITEGIC>MOL_PROPERTY
-TS
SciTegic.value.DoubleValue
33.573

@<SCITEGIC>MOL_PROPERTY
U+W
SciTegic.value.DoubleValue
-1.491

@<SCITEGIC>MOL_PROPERTY
U
SciTegic.value.DoubleValue
52.749

@<SCITEGIC>MOL_PROPERTY
W
SciTegic.value.DoubleValue
-54.240

@<SCITEGIC>MOL_PROPERTY
W(PB)
SciTegic.value.DoubleValue
-56.442

@<SCITEGIC>MOL_PROPERTY
W(SA)
SciTegic.value.DoubleValue
2.202

@<SCITEGIC>MOL_PROPERTY
Valence
SciTegic.value.DoubleValue
6.294

@<SCITEGIC>MOL_PROPERTY
Coulomb
SciTegic.value.DoubleValue
46.014

@<SCITEGIC>MOL_PROPERTY
VdW
SciTegic.value.DoubleValue
0.441

@<SCITEGIC>MOL_PROPERTY
VdW6
SciTegic.value.DoubleValue
-9.947

@<SCITEGIC>MOL_PROPERTY
VdW12
SciTegic.value.DoubleValue
10.387

@<SCITEGIC>MOL_PROPERTY
Bond
SciTegic.value.DoubleValue
0.331

@<SCITEGIC>MOL_PROPERTY
Angle
SciTegic.value.DoubleValue
2.251

@<SCITEGIC>MOL_PROPERTY
Pdih
SciTegic.value.DoubleValue
3.712

@<SCITEGIC>MOL_PROPERTY
Idih
SciTegic.value.DoubleValue
0.000

@<SCITEGIC>MOL_PROPERTY
Tether
SciTegic.value.DoubleValue
0.000

@<TRIPOS>MOLECULE
guest-s14_vm2.mol2 : vm2 ligand conformer 192
          26          25           1
SMALL
USER_CHARGES
 
@<TRIPOS>ATOM
       1    C1      20.374912   20.508892   20.473412 C.3        1 MOL1        -0.2400
       2    H1      19.589009   20.371751   19.719215 H          1 MOL1         0.0971
       3    H2      20.086731   21.349627   21.117810 H          1 MOL1         0.0971
       4    H3      21.298665   20.786931   19.949529 H          1 MOL1         0.0971
       5    C2      20.582796   19.221365   21.298563 C.3        1 MOL1        -0.1385
       6    H4      21.405323   19.383431   22.005624 H          1 MOL1         0.0960
       7    H5      20.897713   18.408148   20.629747 H          1 MOL1         0.0960
       8    C3      19.290870   18.809652   22.044546 C.3        1 MOL1        -0.1409
       9    H6      18.965339   19.621106   22.703391 H          1 MOL1         0.0960
      10    H7      18.486705   18.692314   21.305024 H          1 MOL1         0.0960
      11    C4      19.417592   17.475870   22.827801 C.3        1 MOL1        -0.1409
      12    H8      19.712287   16.693969   22.114246 H          1 MOL1         0.0960
      13    H9      18.426981   17.176489   23.196643 H          1 MOL1         0.0960
      14    C5      20.427135   17.462737   24.009191 C.3        1 MOL1        -0.1409
      15    H10     20.717998   16.417026   24.180125 H          1 MOL1         0.0960
      16    H11     21.359093   17.973754   23.741520 H          1 MOL1         0.0960
      17    C6      19.876222   18.003654   25.356143 C.3        1 MOL1        -0.1450
      18    H12     20.629339   17.835031   26.137286 H          1 MOL1         0.0960
      19    H13     18.999154   17.412917   25.651889 H          1 MOL1         0.0960
      20    C7      19.490195   19.495269   25.365710 C.3        1 MOL1         0.0172
      21    H14     18.650469   19.664899   24.688520 H          1 MOL1         0.0934
      22    H15     19.169722   19.777808   26.372153 H          1 MOL1         0.0934
      23    N1      20.621278   20.421561   24.965634 N.4        1 MOL1        -0.5956
      24    H16     20.939856   20.228885   24.011110 H          1 MOL1         0.3624
      25    H17     21.431086   20.320802   25.586305 H          1 MOL1         0.3624
      26    H18     20.336921   21.406601   25.000120 H          1 MOL1         0.3624
@<TRIPOS>BOND
    1     1     2    1
    2     1     3    1
    3     1     4    1
    4     1     5    1
    5     5     6    1
    6     5     7    1
    7     5     8    1
    8     8     9    1
    9     8    10    1
   10     8    11    1
   11    11    12    1
   12    11    13    1
   13    11    14    1
   14    14    15    1
   15    14    16    1
   16    14    17    1
   17    17    18    1
   18    17    19    1
   19    17    20    1
   20    20    21    1
   21    20    22    1
   22    20    23    1
   23    23    24    1
   24    23    25    1
   25    23    26    1
@<TRIPOS>SUBSTRUCTURE
       1 MOL1            1 RESIDUE      1      MOL     
@<SCITEGIC>MOL_PROPERTY
VM2 Rank
SciTegic.value.IntegerValue
192

@<SCITEGIC>MOL_PROPERTY
Conf_Id
SciTegic.value.IntegerValue
258

@<SCITEGIC>MOL_PROPERTY
Probability
SciTegic.value.DoubleValue
0.00

@<SCITEGIC>MOL_PROPERTY
Sum Probability
SciTegic.value.DoubleValue
100.00

@<SCITEGIC>MOL_PROPERTY
Delta G
SciTegic.value.DoubleValue
5.670

@<SCITEGIC>MOL_PROPERTY
G
SciTegic.value.DoubleValue
53.931

@<SCITEGIC>MOL_PROPERTY
E
SciTegic.value.DoubleValue
20.677

@<SCITEGIC>MOL_PROPERTY
-TS
SciTegic.value.DoubleValue
33.254

@<SCITEGIC>MOL_PROPERTY
U+W
SciTegic.value.DoubleValue
-0.785

@<SCITEGIC>MOL_PROPERTY
U
SciTegic.value.DoubleValue
52.899

@<SCITEGIC>MOL_PROPERTY
W
SciTegic.value.DoubleValue
-53.684

@<SCITEGIC>MOL_PROPERTY
W(PB)
SciTegic.value.DoubleValue
-55.876

@<SCITEGIC>MOL_PROPERTY
W(SA)
SciTegic.value.DoubleValue
2.192

@<SCITEGIC>MOL_PROPERTY
Valence
SciTegic.value.DoubleValue
5.554

@<SCITEGIC>MOL_PROPERTY
Coulomb
SciTegic.value.DoubleValue
47.030

@<SCITEGIC>MOL_PROPERTY
VdW
SciTegic.value.DoubleValue
0.315

@<SCITEGIC>MOL_PROPERTY
VdW6
SciTegic.value.DoubleValue
-9.412

@<SCITEGIC>MOL_PROPERTY
VdW12
SciTegic.value.DoubleValue
9.727

@<SCITEGIC>MOL_PROPERTY
Bond
SciTegic.value.DoubleValue
0.306

@<SCITEGIC>MOL_PROPERTY
Angle
SciTegic.value.DoubleValue
2.197

@<SCITEGIC>MOL_PROPERTY
Pdih
SciTegic.value.DoubleValue
3.051

@<SCITEGIC>MOL_PROPERTY
Idih
SciTegic.value.DoubleValue
0.000

@<SCITEGIC>MOL_PROPERTY
Tether
SciTegic.value.DoubleValue
0.000

@<TRIPOS>MOLECULE
guest-s14_vm2.mol2 : vm2 ligand conformer 193
          26          25           1
SMALL
USER_CHARGES
 
@<TRIPOS>ATOM
       1    C1      18.542979   19.299361   20.411922 C.3        1 MOL1        -0.2400
       2    H1      17.949998   18.575986   19.837307 H          1 MOL1         0.0971
       3    H2      17.853317   19.875120   21.042794 H          1 MOL1         0.0971
       4    H3      19.012093   19.990681   19.699692 H          1 MOL1         0.0971
       5    C2      19.606110   18.576567   21.265820 C.3        1 MOL1        -0.1385
       6    H4      20.261183   17.987865   20.608463 H          1 MOL1         0.0960
       7    H5      19.101952   17.862797   21.928473 H          1 MOL1         0.0960
       8    C3      20.455765   19.578833   22.083509 C.3        1 MOL1        -0.1409
       9    H6      20.913045   20.294404   21.386232 H          1 MOL1         0.0960
      10    H7      19.806946   20.176807   22.731561 H          1 MOL1         0.0960
      11    C4      21.595259   18.913705   22.900628 C.3        1 MOL1        -0.1409
      12    H8      22.241235   19.694872   23.324277 H          1 MOL1         0.0960
      13    H9      22.231542   18.357374   22.198478 H          1 MOL1         0.0960
      14    C5      21.156830   17.944487   24.033511 C.3        1 MOL1        -0.1409
      15    H10     20.334532   17.297449   23.707167 H          1 MOL1         0.0960
      16    H11     21.995768   17.260571   24.222651 H          1 MOL1         0.0960
      17    C6      20.813081   18.621979   25.387472 C.3        1 MOL1        -0.1450
      18    H12     21.685841   19.186302   25.741747 H          1 MOL1         0.0960
      19    H13     20.636534   17.839575   26.137457 H          1 MOL1         0.0960
      20    C7      19.593396   19.563286   25.369279 C.3        1 MOL1         0.0172
      21    H14     19.412647   19.938003   26.380405 H          1 MOL1         0.0934
      22    H15     19.798097   20.422387   24.726984 H          1 MOL1         0.0934
      23    N1      18.317581   18.900781   24.888858 N.4        1 MOL1        -0.5956
      24    H16     18.063862   18.098105   25.474103 H          1 MOL1         0.3624
      25    H17     18.414136   18.561421   23.926965 H          1 MOL1         0.3624
      26    H18     17.522381   19.548632   24.906182 H          1 MOL1         0.3624
@<TRIPOS>BOND
    1     1     2    1
    2     1     3    1
    3     1     4    1
    4     1     5    1
    5     5     6    1
    6     5     7    1
    7     5     8    1
    8     8     9    1
    9     8    10    1
   10     8    11    1
   11    11    12    1
   12    11    13    1
   13    11    14    1
   14    14    15    1
   15    14    16    1
   16    14    17    1
   17    17    18    1
   18    17    19    1
   19    17    20    1
   20    20    21    1
   21    20    22    1
   22    20    23    1
   23    23    24    1
   24    23    25    1
   25    23    26    1
@<TRIPOS>SUBSTRUCTURE
       1 MOL1            1 RESIDUE      1      MOL     
@<SCITEGIC>MOL_PROPERTY
VM2 Rank
SciTegic.value.IntegerValue
193

@<SCITEGIC>MOL_PROPERTY
Conf_Id
SciTegic.value.IntegerValue
855

@<SCITEGIC>MOL_PROPERTY
Probability
SciTegic.value.DoubleValue
0.00

@<SCITEGIC>MOL_PROPERTY
Sum Probability
SciTegic.value.DoubleValue
100.00

@<SCITEGIC>MOL_PROPERTY
Delta G
SciTegic.value.DoubleValue
5.675

@<SCITEGIC>MOL_PROPERTY
G
SciTegic.value.DoubleValue
53.936

@<SCITEGIC>MOL_PROPERTY
E
SciTegic.value.DoubleValue
20.682

@<SCITEGIC>MOL_PROPERTY
-TS
SciTegic.value.DoubleValue
33.254

@<SCITEGIC>MOL_PROPERTY
U+W
SciTegic.value.DoubleValue
-0.780

@<SCITEGIC>MOL_PROPERTY
U
SciTegic.value.DoubleValue
52.899

@<SCITEGIC>MOL_PROPERTY
W
SciTegic.value.DoubleValue
-53.679

@<SCITEGIC>MOL_PROPERTY
W(PB)
SciTegic.value.DoubleValue
-55.863

@<SCITEGIC>MOL_PROPERTY
W(SA)
SciTegic.value.DoubleValue
2.184

@<SCITEGIC>MOL_PROPERTY
Valence
SciTegic.value.DoubleValue
5.554

@<SCITEGIC>MOL_PROPERTY
Coulomb
SciTegic.value.DoubleValue
47.030

@<SCITEGIC>MOL_PROPERTY
VdW
SciTegic.value.DoubleValue
0.315

@<SCITEGIC>MOL_PROPERTY
VdW6
SciTegic.value.DoubleValue
-9.412

@<SCITEGIC>MOL_PROPERTY
VdW12
SciTegic.value.DoubleValue
9.727

@<SCITEGIC>MOL_PROPERTY
Bond
SciTegic.value.DoubleValue
0.306

@<SCITEGIC>MOL_PROPERTY
Angle
SciTegic.value.DoubleValue
2.197

@<SCITEGIC>MOL_PROPERTY
Pdih
SciTegic.value.DoubleValue
3.052

@<SCITEGIC>MOL_PROPERTY
Idih
SciTegic.value.DoubleValue
0.000

@<SCITEGIC>MOL_PROPERTY
Tether
SciTegic.value.DoubleValue
0.000

@<TRIPOS>MOLECULE
guest-s14_vm2.mol2 : vm2 ligand conformer 194
          26          25           1
SMALL
USER_CHARGES
 
@<TRIPOS>ATOM
       1    C1      18.361621   18.386029   20.812489 C.3        1 MOL1        -0.2400
       2    H1      18.454035   18.919046   19.857208 H          1 MOL1         0.0971
       3    H2      17.947105   17.391079   20.604537 H          1 MOL1         0.0971
       4    H3      17.639999   18.927624   21.437837 H          1 MOL1         0.0971
       5    C2      19.729378   18.270025   21.517411 C.3        1 MOL1        -0.1385
       6    H4      20.416212   17.691867   20.883561 H          1 MOL1         0.0960
       7    H5      19.610776   17.696676   22.444389 H          1 MOL1         0.0960
       8    C3      20.343234   19.661402   21.805681 C.3        1 MOL1        -0.1409
       9    H6      20.536379   20.151978   20.841583 H          1 MOL1         0.0960
      10    H7      19.624876   20.306436   22.328860 H          1 MOL1         0.0960
      11    C4      21.674316   19.590726   22.596826 C.3        1 MOL1        -0.1409
      12    H8      22.338019   20.376605   22.210339 H          1 MOL1         0.0960
      13    H9      22.190816   18.643861   22.387280 H          1 MOL1         0.0960
      14    C5      21.554092   19.802385   24.130584 C.3        1 MOL1        -0.1409
      15    H10     22.573425   19.813638   24.540803 H          1 MOL1         0.0960
      16    H11     21.141225   20.798824   24.340811 H          1 MOL1         0.0960
      17    C6      20.745795   18.725273   24.895781 C.3        1 MOL1        -0.1450
      18    H12     21.097091   18.699814   25.935928 H          1 MOL1         0.0960
      19    H13     20.950776   17.731342   24.477229 H          1 MOL1         0.0960
      20    C7      19.230494   19.005661   24.912041 C.3        1 MOL1         0.0172
      21    H14     19.042517   19.974200   25.383122 H          1 MOL1         0.0934
      22    H15     18.842852   19.042045   23.892103 H          1 MOL1         0.0934
      23    N1      18.442070   17.957499   25.670188 N.4        1 MOL1        -0.5956
      24    H16     17.437331   18.164202   25.672207 H          1 MOL1         0.3624
      25    H17     18.735276   17.895109   26.650632 H          1 MOL1         0.3624
      26    H18     18.554609   17.024090   25.261697 H          1 MOL1         0.3624
@<TRIPOS>BOND
    1     1     2    1
    2     1     3    1
    3     1     4    1
    4     1     5    1
    5     5     6    1
    6     5     7    1
    7     5     8    1
    8     8     9    1
    9     8    10    1
   10     8    11    1
   11    11    12    1
   12    11    13    1
   13    11    14    1
   14    14    15    1
   15    14    16    1
   16    14    17    1
   17    17    18    1
   18    17    19    1
   19    17    20    1
   20    20    21    1
   21    20    22    1
   22    20    23    1
   23    23    24    1
   24    23    25    1
   25    23    26    1
@<TRIPOS>SUBSTRUCTURE
       1 MOL1            1 RESIDUE      1      MOL     
@<SCITEGIC>MOL_PROPERTY
VM2 Rank
SciTegic.value.IntegerValue
194

@<SCITEGIC>MOL_PROPERTY
Conf_Id
SciTegic.value.IntegerValue
1246

@<SCITEGIC>MOL_PROPERTY
Probability
SciTegic.value.DoubleValue
0.00

@<SCITEGIC>MOL_PROPERTY
Sum Probability
SciTegic.value.DoubleValue
100.00

@<SCITEGIC>MOL_PROPERTY
Delta G
SciTegic.value.DoubleValue
5.824

@<SCITEGIC>MOL_PROPERTY
G
SciTegic.value.DoubleValue
54.085

@<SCITEGIC>MOL_PROPERTY
E
SciTegic.value.DoubleValue
20.802

@<SCITEGIC>MOL_PROPERTY
-TS
SciTegic.value.DoubleValue
33.283

@<SCITEGIC>MOL_PROPERTY
U+W
SciTegic.value.DoubleValue
-0.660

@<SCITEGIC>MOL_PROPERTY
U
SciTegic.value.DoubleValue
53.727

@<SCITEGIC>MOL_PROPERTY
W
SciTegic.value.DoubleValue
-54.387

@<SCITEGIC>MOL_PROPERTY
W(PB)
SciTegic.value.DoubleValue
-56.588

@<SCITEGIC>MOL_PROPERTY
W(SA)
SciTegic.value.DoubleValue
2.200

@<SCITEGIC>MOL_PROPERTY
Valence
SciTegic.value.DoubleValue
7.056

@<SCITEGIC>MOL_PROPERTY
Coulomb
SciTegic.value.DoubleValue
46.464

@<SCITEGIC>MOL_PROPERTY
VdW
SciTegic.value.DoubleValue
0.207

@<SCITEGIC>MOL_PROPERTY
VdW6
SciTegic.value.DoubleValue
-9.122

@<SCITEGIC>MOL_PROPERTY
VdW12
SciTegic.value.DoubleValue
9.329

@<SCITEGIC>MOL_PROPERTY
Bond
SciTegic.value.DoubleValue
0.248

@<SCITEGIC>MOL_PROPERTY
Angle
SciTegic.value.DoubleValue
1.758

@<SCITEGIC>MOL_PROPERTY
Pdih
SciTegic.value.DoubleValue
5.050

@<SCITEGIC>MOL_PROPERTY
Idih
SciTegic.value.DoubleValue
0.000

@<SCITEGIC>MOL_PROPERTY
Tether
SciTegic.value.DoubleValue
0.000

@<TRIPOS>MOLECULE
guest-s14_vm2.mol2 : vm2 ligand conformer 195
          26          25           1
SMALL
USER_CHARGES
 
@<TRIPOS>ATOM
       1    C1      21.267657   20.302787   20.909459 C.3        1 MOL1        -0.2400
       2    H1      21.024424   21.159942   21.550744 H          1 MOL1         0.0971
       3    H2      22.353961   20.297728   20.751621 H          1 MOL1         0.0971
       4    H3      20.786207   20.457254   19.935007 H          1 MOL1         0.0971
       5    C2      20.804437   18.979146   21.553299 C.3        1 MOL1        -0.1385
       6    H4      21.334535   18.833701   22.501944 H          1 MOL1         0.0960
       7    H5      21.095305   18.139798   20.906256 H          1 MOL1         0.0960
       8    C3      19.272008   18.954891   21.769920 C.3        1 MOL1        -0.1409
       9    H6      18.937249   19.852891   22.305975 H          1 MOL1         0.0960
      10    H7      18.790382   19.000488   20.783302 H          1 MOL1         0.0960
      11    C4      18.777553   17.680079   22.500028 C.3        1 MOL1        -0.1409
      12    H8      19.454256   16.838893   22.295788 H          1 MOL1         0.0960
      13    H9      17.813108   17.392073   22.059147 H          1 MOL1         0.0960
      14    C5      18.559007   17.826794   24.030511 C.3        1 MOL1        -0.1409
      15    H10     17.796028   18.592283   24.229091 H          1 MOL1         0.0960
      16    H11     18.129445   16.882316   24.392293 H          1 MOL1         0.0960
      17    C6      19.830113   18.121231   24.865157 C.3        1 MOL1        -0.1450
      18    H12     20.682097   17.554131   24.468141 H          1 MOL1         0.0960
      19    H13     19.667252   17.756502   25.888101 H          1 MOL1         0.0960
      20    C7      20.166605   19.623120   24.943400 C.3        1 MOL1         0.0172
      21    H14     20.332792   20.024906   23.941994 H          1 MOL1         0.0934
      22    H15     19.328813   20.162982   25.392820 H          1 MOL1         0.0934
      23    N1      21.403620   19.910952   25.769226 N.4        1 MOL1        -0.5956
      24    H16     21.608021   20.915263   25.811742 H          1 MOL1         0.3624
      25    H17     22.235848   19.452330   25.384720 H          1 MOL1         0.3624
      26    H18     21.300250   19.586850   26.736391 H          1 MOL1         0.3624
@<TRIPOS>BOND
    1     1     2    1
    2     1     3    1
    3     1     4    1
    4     1     5    1
    5     5     6    1
    6     5     7    1
    7     5     8    1
    8     8     9    1
    9     8    10    1
   10     8    11    1
   11    11    12    1
   12    11    13    1
   13    11    14    1
   14    14    15    1
   15    14    16    1
   16    14    17    1
   17    17    18    1
   18    17    19    1
   19    17    20    1
   20    20    21    1
   21    20    22    1
   22    20    23    1
   23    23    24    1
   24    23    25    1
   25    23    26    1
@<TRIPOS>SUBSTRUCTURE
       1 MOL1            1 RESIDUE      1      MOL     
@<SCITEGIC>MOL_PROPERTY
VM2 Rank
SciTegic.value.IntegerValue
195

@<SCITEGIC>MOL_PROPERTY
Conf_Id
SciTegic.value.IntegerValue
1581

@<SCITEGIC>MOL_PROPERTY
Probability
SciTegic.value.DoubleValue
0.00

@<SCITEGIC>MOL_PROPERTY
Sum Probability
SciTegic.value.DoubleValue
100.00

@<SCITEGIC>MOL_PROPERTY
Delta G
SciTegic.value.DoubleValue
5.894

@<SCITEGIC>MOL_PROPERTY
G
SciTegic.value.DoubleValue
54.155

@<SCITEGIC>MOL_PROPERTY
E
SciTegic.value.DoubleValue
20.872

@<SCITEGIC>MOL_PROPERTY
-TS
SciTegic.value.DoubleValue
33.283

@<SCITEGIC>MOL_PROPERTY
U+W
SciTegic.value.DoubleValue
-0.590

@<SCITEGIC>MOL_PROPERTY
U
SciTegic.value.DoubleValue
53.727

@<SCITEGIC>MOL_PROPERTY
W
SciTegic.value.DoubleValue
-54.317

@<SCITEGIC>MOL_PROPERTY
W(PB)
SciTegic.value.DoubleValue
-56.544

@<SCITEGIC>MOL_PROPERTY
W(SA)
SciTegic.value.DoubleValue
2.228

@<SCITEGIC>MOL_PROPERTY
Valence
SciTegic.value.DoubleValue
7.057

@<SCITEGIC>MOL_PROPERTY
Coulomb
SciTegic.value.DoubleValue
46.464

@<SCITEGIC>MOL_PROPERTY
VdW
SciTegic.value.DoubleValue
0.207

@<SCITEGIC>MOL_PROPERTY
VdW6
SciTegic.value.DoubleValue
-9.121

@<SCITEGIC>MOL_PROPERTY
VdW12
SciTegic.value.DoubleValue
9.328

@<SCITEGIC>MOL_PROPERTY
Bond
SciTegic.value.DoubleValue
0.248

@<SCITEGIC>MOL_PROPERTY
Angle
SciTegic.value.DoubleValue
1.758

@<SCITEGIC>MOL_PROPERTY
Pdih
SciTegic.value.DoubleValue
5.050

@<SCITEGIC>MOL_PROPERTY
Idih
SciTegic.value.DoubleValue
0.000

@<SCITEGIC>MOL_PROPERTY
Tether
SciTegic.value.DoubleValue
0.000

@<TRIPOS>MOLECULE
guest-s14_vm2.mol2 : vm2 ligand conformer 196
          26          25           1
SMALL
USER_CHARGES
 
@<TRIPOS>ATOM
       1    C1      21.030163   20.241562   20.877319 C.3        1 MOL1        -0.2400
       2    H1      21.920402   20.226413   21.519024 H          1 MOL1         0.0971
       3    H2      21.330115   20.646499   19.902066 H          1 MOL1         0.0971
       4    H3      20.300744   20.937241   21.309873 H          1 MOL1         0.0971
       5    C2      20.437975   18.823387   20.710824 C.3        1 MOL1        -0.1385
       6    H4      21.164814   18.198268   20.173434 H          1 MOL1         0.0960
       7    H5      19.542410   18.867742   20.075368 H          1 MOL1         0.0960
       8    C3      20.093637   18.139625   22.055324 C.3        1 MOL1        -0.1409
       9    H6      19.812563   17.096424   21.855427 H          1 MOL1         0.0960
      10    H7      20.996050   18.097867   22.677371 H          1 MOL1         0.0960
      11    C4      18.933253   18.831589   22.814993 C.3        1 MOL1        -0.1409
      12    H8      18.054364   18.865547   22.156458 H          1 MOL1         0.0960
      13    H9      19.175190   19.877405   23.034913 H          1 MOL1         0.0960
      14    C5      18.530976   18.104110   24.122900 C.3        1 MOL1        -0.1409
      15    H10     17.670564   18.626946   24.563003 H          1 MOL1         0.0960
      16    H11     18.170353   17.097386   23.870541 H          1 MOL1         0.0960
      17    C6      19.640220   17.976884   25.201692 C.3        1 MOL1        -0.1450
      18    H12     20.467171   17.351653   24.841774 H          1 MOL1         0.0960
      19    H13     19.212937   17.436669   26.056879 H          1 MOL1         0.0960
      20    C7      20.179394   19.325637   25.722307 C.3        1 MOL1         0.0172
      21    H14     19.353948   20.033384   25.836184 H          1 MOL1         0.0934
      22    H15     20.634879   19.174836   26.704776 H          1 MOL1         0.0934
      23    N1      21.235381   19.956205   24.835641 N.4        1 MOL1        -0.5956
      24    H16     21.531381   20.872565   25.189766 H          1 MOL1         0.3624
      25    H17     20.890526   20.090613   23.880025 H          1 MOL1         0.3624
      26    H18     22.076155   19.372443   24.777205 H          1 MOL1         0.3624
@<TRIPOS>BOND
    1     1     2    1
    2     1     3    1
    3     1     4    1
    4     1     5    1
    5     5     6    1
    6     5     7    1
    7     5     8    1
    8     8     9    1
    9     8    10    1
   10     8    11    1
   11    11    12    1
   12    11    13    1
   13    11    14    1
   14    14    15    1
   15    14    16    1
   16    14    17    1
   17    17    18    1
   18    17    19    1
   19    17    20    1
   20    20    21    1
   21    20    22    1
   22    20    23    1
   23    23    24    1
   24    23    25    1
   25    23    26    1
@<TRIPOS>SUBSTRUCTURE
       1 MOL1            1 RESIDUE      1      MOL     
@<SCITEGIC>MOL_PROPERTY
VM2 Rank
SciTegic.value.IntegerValue
196

@<SCITEGIC>MOL_PROPERTY
Conf_Id
SciTegic.value.IntegerValue
1520

@<SCITEGIC>MOL_PROPERTY
Probability
SciTegic.value.DoubleValue
0.00

@<SCITEGIC>MOL_PROPERTY
Sum Probability
SciTegic.value.DoubleValue
100.00

@<SCITEGIC>MOL_PROPERTY
Delta G
SciTegic.value.DoubleValue
5.911

@<SCITEGIC>MOL_PROPERTY
G
SciTegic.value.DoubleValue
54.172

@<SCITEGIC>MOL_PROPERTY
E
SciTegic.value.DoubleValue
20.795

@<SCITEGIC>MOL_PROPERTY
-TS
SciTegic.value.DoubleValue
33.377

@<SCITEGIC>MOL_PROPERTY
U+W
SciTegic.value.DoubleValue
-0.667

@<SCITEGIC>MOL_PROPERTY
U
SciTegic.value.DoubleValue
52.431

@<SCITEGIC>MOL_PROPERTY
W
SciTegic.value.DoubleValue
-53.097

@<SCITEGIC>MOL_PROPERTY
W(PB)
SciTegic.value.DoubleValue
-55.283

@<SCITEGIC>MOL_PROPERTY
W(SA)
SciTegic.value.DoubleValue
2.186

@<SCITEGIC>MOL_PROPERTY
Valence
SciTegic.value.DoubleValue
4.698

@<SCITEGIC>MOL_PROPERTY
Coulomb
SciTegic.value.DoubleValue
47.456

@<SCITEGIC>MOL_PROPERTY
VdW
SciTegic.value.DoubleValue
0.276

@<SCITEGIC>MOL_PROPERTY
VdW6
SciTegic.value.DoubleValue
-9.681

@<SCITEGIC>MOL_PROPERTY
VdW12
SciTegic.value.DoubleValue
9.958

@<SCITEGIC>MOL_PROPERTY
Bond
SciTegic.value.DoubleValue
0.267

@<SCITEGIC>MOL_PROPERTY
Angle
SciTegic.value.DoubleValue
1.656

@<SCITEGIC>MOL_PROPERTY
Pdih
SciTegic.value.DoubleValue
2.775

@<SCITEGIC>MOL_PROPERTY
Idih
SciTegic.value.DoubleValue
0.000

@<SCITEGIC>MOL_PROPERTY
Tether
SciTegic.value.DoubleValue
0.000

@<TRIPOS>MOLECULE
guest-s14_vm2.mol2 : vm2 ligand conformer 197
          26          25           1
SMALL
USER_CHARGES
 
@<TRIPOS>ATOM
       1    C1      19.517828   20.027297   20.458285 C.3        1 MOL1        -0.2400
       2    H1      18.755968   20.471355   21.111865 H          1 MOL1         0.0971
       3    H2      20.492994   20.458084   20.717364 H          1 MOL1         0.0971
       4    H3      19.289735   20.325002   19.426686 H          1 MOL1         0.0971
       5    C2      19.531358   18.488094   20.585889 C.3        1 MOL1        -0.1385
       6    H4      20.319946   18.074883   19.941595 H          1 MOL1         0.0960
       7    H5      18.582457   18.093411   20.196598 H          1 MOL1         0.0960
       8    C3      19.722338   17.975380   22.035967 C.3        1 MOL1        -0.1409
       9    H6      18.886615   18.317063   22.658697 H          1 MOL1         0.0960
      10    H7      19.649490   16.879297   22.013810 H          1 MOL1         0.0960
      11    C4      21.085531   18.357871   22.674665 C.3        1 MOL1        -0.1409
      12    H8      21.835855   18.459529   21.878538 H          1 MOL1         0.0960
      13    H9      21.439811   17.527123   23.300391 H          1 MOL1         0.0960
      14    C5      21.062512   19.656313   23.526054 C.3        1 MOL1        -0.1409
      15    H10     22.051104   20.130797   23.457380 H          1 MOL1         0.0960
      16    H11     20.352350   20.381942   23.110039 H          1 MOL1         0.0960
      17    C6      20.753534   19.423738   25.026312 C.3        1 MOL1        -0.1450
      18    H12     20.831912   20.382455   25.556025 H          1 MOL1         0.0960
      19    H13     21.518253   18.765516   25.459750 H          1 MOL1         0.0960
      20    C7      19.359093   18.824163   25.280845 C.3        1 MOL1         0.0172
      21    H14     18.594142   19.476051   24.850486 H          1 MOL1         0.0934
      22    H15     19.287706   17.844052   24.802070 H          1 MOL1         0.0934
      23    N1      19.048805   18.646144   26.752982 N.4        1 MOL1        -0.5956
      24    H16     18.116431   18.244537   26.900262 H          1 MOL1         0.3624
      25    H17     19.073036   19.537493   27.259003 H          1 MOL1         0.3624
      26    H18     19.719166   18.020565   27.211689 H          1 MOL1         0.3624
@<TRIPOS>BOND
    1     1     2    1
    2     1     3    1
    3     1     4    1
    4     1     5    1
    5     5     6    1
    6     5     7    1
    7     5     8    1
    8     8     9    1
    9     8    10    1
   10     8    11    1
   11    11    12    1
   12    11    13    1
   13    11    14    1
   14    14    15    1
   15    14    16    1
   16    14    17    1
   17    17    18    1
   18    17    19    1
   19    17    20    1
   20    20    21    1
   21    20    22    1
   22    20    23    1
   23    23    24    1
   24    23    25    1
   25    23    26    1
@<TRIPOS>SUBSTRUCTURE
       1 MOL1            1 RESIDUE      1      MOL     
@<SCITEGIC>MOL_PROPERTY
VM2 Rank
SciTegic.value.IntegerValue
197

@<SCITEGIC>MOL_PROPERTY
Conf_Id
SciTegic.value.IntegerValue
1327

@<SCITEGIC>MOL_PROPERTY
Probability
SciTegic.value.DoubleValue
0.00

@<SCITEGIC>MOL_PROPERTY
Sum Probability
SciTegic.value.DoubleValue
100.00

@<SCITEGIC>MOL_PROPERTY
Delta G
SciTegic.value.DoubleValue
5.924

@<SCITEGIC>MOL_PROPERTY
G
SciTegic.value.DoubleValue
54.185

@<SCITEGIC>MOL_PROPERTY
E
SciTegic.value.DoubleValue
21.143

@<SCITEGIC>MOL_PROPERTY
-TS
SciTegic.value.DoubleValue
33.042

@<SCITEGIC>MOL_PROPERTY
U+W
SciTegic.value.DoubleValue
-0.319

@<SCITEGIC>MOL_PROPERTY
U
SciTegic.value.DoubleValue
53.651

@<SCITEGIC>MOL_PROPERTY
W
SciTegic.value.DoubleValue
-53.970

@<SCITEGIC>MOL_PROPERTY
W(PB)
SciTegic.value.DoubleValue
-56.216

@<SCITEGIC>MOL_PROPERTY
W(SA)
SciTegic.value.DoubleValue
2.246

@<SCITEGIC>MOL_PROPERTY
Valence
SciTegic.value.DoubleValue
7.361

@<SCITEGIC>MOL_PROPERTY
Coulomb
SciTegic.value.DoubleValue
45.564

@<SCITEGIC>MOL_PROPERTY
VdW
SciTegic.value.DoubleValue
0.725

@<SCITEGIC>MOL_PROPERTY
VdW6
SciTegic.value.DoubleValue
-8.886

@<SCITEGIC>MOL_PROPERTY
VdW12
SciTegic.value.DoubleValue
9.611

@<SCITEGIC>MOL_PROPERTY
Bond
SciTegic.value.DoubleValue
0.293

@<SCITEGIC>MOL_PROPERTY
Angle
SciTegic.value.DoubleValue
1.529

@<SCITEGIC>MOL_PROPERTY
Pdih
SciTegic.value.DoubleValue
5.540

@<SCITEGIC>MOL_PROPERTY
Idih
SciTegic.value.DoubleValue
0.000

@<SCITEGIC>MOL_PROPERTY
Tether
SciTegic.value.DoubleValue
0.000

@<TRIPOS>MOLECULE
guest-s14_vm2.mol2 : vm2 ligand conformer 198
          26          25           1
SMALL
USER_CHARGES
 
@<TRIPOS>ATOM
       1    C1      18.512313   18.581524   20.793649 C.3        1 MOL1        -0.2400
       2    H1      18.146816   17.738226   21.393481 H          1 MOL1         0.0971
       3    H2      18.139877   19.512532   21.238218 H          1 MOL1         0.0971
       4    H3      18.067715   18.495652   19.793637 H          1 MOL1         0.0971
       5    C2      20.055164   18.571242   20.698112 C.3        1 MOL1        -0.1385
       6    H4      20.395658   19.430807   20.103956 H          1 MOL1         0.0960
       7    H5      20.368653   17.673691   20.146765 H          1 MOL1         0.0960
       8    C3      20.756165   18.576440   22.077365 C.3        1 MOL1        -0.1409
       9    H6      20.411109   17.712087   22.657765 H          1 MOL1         0.0960
      10    H7      21.833943   18.429187   21.922633 H          1 MOL1         0.0960
      11    C4      20.541445   19.891754   22.868720 C.3        1 MOL1        -0.1409
      12    H8      19.475704   20.075523   23.044940 H          1 MOL1         0.0960
      13    H9      20.886392   20.732516   22.251145 H          1 MOL1         0.0960
      14    C5      21.306717   19.933849   24.215664 C.3        1 MOL1        -0.1409
      15    H10     22.384723   19.875427   24.011414 H          1 MOL1         0.0960
      16    H11     21.144336   20.916795   24.679133 H          1 MOL1         0.0960
      17    C6      20.937199   18.831866   25.244979 C.3        1 MOL1        -0.1450
      18    H12     21.561367   18.984765   26.135363 H          1 MOL1         0.0960
      19    H13     21.203061   17.836766   24.866300 H          1 MOL1         0.0960
      20    C7      19.462391   18.853056   25.698163 C.3        1 MOL1         0.0172
      21    H14     19.376007   18.345212   26.662571 H          1 MOL1         0.0934
      22    H15     19.131592   19.886901   25.828426 H          1 MOL1         0.0934
      23    N1      18.509606   18.159270   24.744349 N.4        1 MOL1        -0.5956
      24    H16     18.717885   17.158566   24.664958 H          1 MOL1         0.3624
      25    H17     18.566347   18.558184   23.802095 H          1 MOL1         0.3624
      26    H18     17.535221   18.238283   25.055904 H          1 MOL1         0.3624
@<TRIPOS>BOND
    1     1     2    1
    2     1     3    1
    3     1     4    1
    4     1     5    1
    5     5     6    1
    6     5     7    1
    7     5     8    1
    8     8     9    1
    9     8    10    1
   10     8    11    1
   11    11    12    1
   12    11    13    1
   13    11    14    1
   14    14    15    1
   15    14    16    1
   16    14    17    1
   17    17    18    1
   18    17    19    1
   19    17    20    1
   20    20    21    1
   21    20    22    1
   22    20    23    1
   23    23    24    1
   24    23    25    1
   25    23    26    1
@<TRIPOS>SUBSTRUCTURE
       1 MOL1            1 RESIDUE      1      MOL     
@<SCITEGIC>MOL_PROPERTY
VM2 Rank
SciTegic.value.IntegerValue
198

@<SCITEGIC>MOL_PROPERTY
Conf_Id
SciTegic.value.IntegerValue
189

@<SCITEGIC>MOL_PROPERTY
Probability
SciTegic.value.DoubleValue
0.00

@<SCITEGIC>MOL_PROPERTY
Sum Probability
SciTegic.value.DoubleValue
100.00

@<SCITEGIC>MOL_PROPERTY
Delta G
SciTegic.value.DoubleValue
6.011

@<SCITEGIC>MOL_PROPERTY
G
SciTegic.value.DoubleValue
54.273

@<SCITEGIC>MOL_PROPERTY
E
SciTegic.value.DoubleValue
20.896

@<SCITEGIC>MOL_PROPERTY
-TS
SciTegic.value.DoubleValue
33.377

@<SCITEGIC>MOL_PROPERTY
U+W
SciTegic.value.DoubleValue
-0.566

@<SCITEGIC>MOL_PROPERTY
U
SciTegic.value.DoubleValue
52.431

@<SCITEGIC>MOL_PROPERTY
W
SciTegic.value.DoubleValue
-52.997

@<SCITEGIC>MOL_PROPERTY
W(PB)
SciTegic.value.DoubleValue
-55.181

@<SCITEGIC>MOL_PROPERTY
W(SA)
SciTegic.value.DoubleValue
2.184

@<SCITEGIC>MOL_PROPERTY
Valence
SciTegic.value.DoubleValue
4.698

@<SCITEGIC>MOL_PROPERTY
Coulomb
SciTegic.value.DoubleValue
47.456

@<SCITEGIC>MOL_PROPERTY
VdW
SciTegic.value.DoubleValue
0.276

@<SCITEGIC>MOL_PROPERTY
VdW6
SciTegic.value.DoubleValue
-9.682

@<SCITEGIC>MOL_PROPERTY
VdW12
SciTegic.value.DoubleValue
9.958

@<SCITEGIC>MOL_PROPERTY
Bond
SciTegic.value.DoubleValue
0.267

@<SCITEGIC>MOL_PROPERTY
Angle
SciTegic.value.DoubleValue
1.656

@<SCITEGIC>MOL_PROPERTY
Pdih
SciTegic.value.DoubleValue
2.775

@<SCITEGIC>MOL_PROPERTY
Idih
SciTegic.value.DoubleValue
0.000

@<SCITEGIC>MOL_PROPERTY
Tether
SciTegic.value.DoubleValue
0.000

@<TRIPOS>MOLECULE
guest-s14_vm2.mol2 : vm2 ligand conformer 199
          26          25           1
SMALL
USER_CHARGES
 
@<TRIPOS>ATOM
       1    C1      19.229453   19.556514   20.167397 C.3        1 MOL1        -0.2400
       2    H1      19.977677   20.100719   19.576636 H          1 MOL1         0.0971
       3    H2      18.374007   19.349905   19.511335 H          1 MOL1         0.0971
       4    H3      18.880305   20.220617   20.965273 H          1 MOL1         0.0971
       5    C2      19.815775   18.236901   20.721092 C.3        1 MOL1        -0.1385
       6    H4      20.095497   17.607240   19.864830 H          1 MOL1         0.0960
       7    H5      19.044908   17.676929   21.268569 H          1 MOL1         0.0960
       8    C3      21.069184   18.439778   21.611290 C.3        1 MOL1        -0.1409
       9    H6      21.734451   17.577978   21.462505 H          1 MOL1         0.0960
      10    H7      21.639889   19.314970   21.271487 H          1 MOL1         0.0960
      11    C4      20.779862   18.545905   23.130935 C.3        1 MOL1        -0.1409
      12    H8      21.741661   18.591426   23.660123 H          1 MOL1         0.0960
      13    H9      20.281395   17.624979   23.458326 H          1 MOL1         0.0960
      14    C5      19.925260   19.772737   23.530212 C.3        1 MOL1        -0.1409
      15    H10     20.312279   20.660182   23.010886 H          1 MOL1         0.0960
      16    H11     18.893141   19.630948   23.183793 H          1 MOL1         0.0960
      17    C6      19.908368   20.071850   25.051101 C.3        1 MOL1        -0.1450
      18    H12     19.355072   21.007997   25.203814 H          1 MOL1         0.0960
      19    H13     20.926722   20.261047   25.415776 H          1 MOL1         0.0960
      20    C7      19.232668   18.982344   25.909514 C.3        1 MOL1         0.0172
      21    H14     18.936684   19.417345   26.867979 H          1 MOL1         0.0934
      22    H15     18.330598   18.621528   25.408157 H          1 MOL1         0.0934
      23    N1      20.120431   17.792971   26.219458 N.4        1 MOL1        -0.5956
      24    H16     19.633584   17.094057   26.791183 H          1 MOL1         0.3624
      25    H17     20.959544   18.071253   26.738572 H          1 MOL1         0.3624
      26    H18     20.434154   17.321115   25.366850 H          1 MOL1         0.3624
@<TRIPOS>BOND
    1     1     2    1
    2     1     3    1
    3     1     4    1
    4     1     5    1
    5     5     6    1
    6     5     7    1
    7     5     8    1
    8     8     9    1
    9     8    10    1
   10     8    11    1
   11    11    12    1
   12    11    13    1
   13    11    14    1
   14    14    15    1
   15    14    16    1
   16    14    17    1
   17    17    18    1
   18    17    19    1
   19    17    20    1
   20    20    21    1
   21    20    22    1
   22    20    23    1
   23    23    24    1
   24    23    25    1
   25    23    26    1
@<TRIPOS>SUBSTRUCTURE
       1 MOL1            1 RESIDUE      1      MOL     
@<SCITEGIC>MOL_PROPERTY
VM2 Rank
SciTegic.value.IntegerValue
199

@<SCITEGIC>MOL_PROPERTY
Conf_Id
SciTegic.value.IntegerValue
820

@<SCITEGIC>MOL_PROPERTY
Probability
SciTegic.value.DoubleValue
0.00

@<SCITEGIC>MOL_PROPERTY
Sum Probability
SciTegic.value.DoubleValue
100.00

@<SCITEGIC>MOL_PROPERTY
Delta G
SciTegic.value.DoubleValue
6.038

@<SCITEGIC>MOL_PROPERTY
G
SciTegic.value.DoubleValue
54.299

@<SCITEGIC>MOL_PROPERTY
E
SciTegic.value.DoubleValue
21.439

@<SCITEGIC>MOL_PROPERTY
-TS
SciTegic.value.DoubleValue
32.860

@<SCITEGIC>MOL_PROPERTY
U+W
SciTegic.value.DoubleValue
-0.023

@<SCITEGIC>MOL_PROPERTY
U
SciTegic.value.DoubleValue
53.913

@<SCITEGIC>MOL_PROPERTY
W
SciTegic.value.DoubleValue
-53.936

@<SCITEGIC>MOL_PROPERTY
W(PB)
SciTegic.value.DoubleValue
-56.166

@<SCITEGIC>MOL_PROPERTY
W(SA)
SciTegic.value.DoubleValue
2.230

@<SCITEGIC>MOL_PROPERTY
Valence
SciTegic.value.DoubleValue
6.633

@<SCITEGIC>MOL_PROPERTY
Coulomb
SciTegic.value.DoubleValue
46.628

@<SCITEGIC>MOL_PROPERTY
VdW
SciTegic.value.DoubleValue
0.652

@<SCITEGIC>MOL_PROPERTY
VdW6
SciTegic.value.DoubleValue
-8.844

@<SCITEGIC>MOL_PROPERTY
VdW12
SciTegic.value.DoubleValue
9.496

@<SCITEGIC>MOL_PROPERTY
Bond
SciTegic.value.DoubleValue
0.271

@<SCITEGIC>MOL_PROPERTY
Angle
SciTegic.value.DoubleValue
1.731

@<SCITEGIC>MOL_PROPERTY
Pdih
SciTegic.value.DoubleValue
4.632

@<SCITEGIC>MOL_PROPERTY
Idih
SciTegic.value.DoubleValue
0.000

@<SCITEGIC>MOL_PROPERTY
Tether
SciTegic.value.DoubleValue
0.000

@<TRIPOS>MOLECULE
guest-s14_vm2.mol2 : vm2 ligand conformer 200
          26          25           1
SMALL
USER_CHARGES
 
@<TRIPOS>ATOM
       1    C1      20.071569   18.224714   20.219184 C.3        1 MOL1        -0.2400
       2    H1      19.010944   18.117134   20.478546 H          1 MOL1         0.0971
       3    H2      20.175120   19.078559   19.537136 H          1 MOL1         0.0971
       4    H3      20.371105   17.320572   19.673596 H          1 MOL1         0.0971
       5    C2      20.945725   18.410919   21.479654 C.3        1 MOL1        -0.1385
       6    H4      22.003053   18.385606   21.180863 H          1 MOL1         0.0960
       7    H5      20.804972   17.555599   22.151533 H          1 MOL1         0.0960
       8    C3      20.678710   19.744265   22.225618 C.3        1 MOL1        -0.1409
       9    H6      21.369736   19.825179   23.071644 H          1 MOL1         0.0960
      10    H7      20.947878   20.572485   21.555733 H          1 MOL1         0.0960
      11    C4      19.216088   19.966550   22.701958 C.3        1 MOL1        -0.1409
      12    H8      18.566497   19.999035   21.817396 H          1 MOL1         0.0960
      13    H9      19.132187   20.964820   23.152758 H          1 MOL1         0.0960
      14    C5      18.647082   18.911007   23.689758 C.3        1 MOL1        -0.1409
      15    H10     17.553630   18.915209   23.582253 H          1 MOL1         0.0960
      16    H11     18.954460   17.897367   23.407398 H          1 MOL1         0.0960
      17    C6      18.955332   19.180483   25.187070 C.3        1 MOL1        -0.1450
      18    H12     18.416955   18.443475   25.797598 H          1 MOL1         0.0960
      19    H13     18.547009   20.160087   25.468738 H          1 MOL1         0.0960
      20    C7      20.446233   19.141390   25.572835 C.3        1 MOL1         0.0172
      21    H14     20.985433   19.933748   25.049532 H          1 MOL1         0.0934
      22    H15     20.545516   19.321874   26.646622 H          1 MOL1         0.0934
      23    N1      21.120261   17.819672   25.264923 N.4        1 MOL1        -0.5956
      24    H16     20.671573   17.041469   25.759125 H          1 MOL1         0.3624
      25    H17     22.107964   17.822022   25.542024 H          1 MOL1         0.3624
      26    H18     21.084071   17.608148   24.263606 H          1 MOL1         0.3624
@<TRIPOS>BOND
    1     1     2    1
    2     1     3    1
    3     1     4    1
    4     1     5    1
    5     5     6    1
    6     5     7    1
    7     5     8    1
    8     8     9    1
    9     8    10    1
   10     8    11    1
   11    11    12    1
   12    11    13    1
   13    11    14    1
   14    14    15    1
   15    14    16    1
   16    14    17    1
   17    17    18    1
   18    17    19    1
   19    17    20    1
   20    20    21    1
   21    20    22    1
   22    20    23    1
   23    23    24    1
   24    23    25    1
   25    23    26    1
@<TRIPOS>SUBSTRUCTURE
       1 MOL1            1 RESIDUE      1      MOL     
@<SCITEGIC>MOL_PROPERTY
VM2 Rank
SciTegic.value.IntegerValue
200

@<SCITEGIC>MOL_PROPERTY
Conf_Id
SciTegic.value.IntegerValue
829

@<SCITEGIC>MOL_PROPERTY
Probability
SciTegic.value.DoubleValue
0.00

@<SCITEGIC>MOL_PROPERTY
Sum Probability
SciTegic.value.DoubleValue
100.00

@<SCITEGIC>MOL_PROPERTY
Delta G
SciTegic.value.DoubleValue
6.090

@<SCITEGIC>MOL_PROPERTY
G
SciTegic.value.DoubleValue
54.351

@<SCITEGIC>MOL_PROPERTY
E
SciTegic.value.DoubleValue
20.886

@<SCITEGIC>MOL_PROPERTY
-TS
SciTegic.value.DoubleValue
33.466

@<SCITEGIC>MOL_PROPERTY
U+W
SciTegic.value.DoubleValue
-0.576

@<SCITEGIC>MOL_PROPERTY
U
SciTegic.value.DoubleValue
53.513

@<SCITEGIC>MOL_PROPERTY
W
SciTegic.value.DoubleValue
-54.089

@<SCITEGIC>MOL_PROPERTY
W(PB)
SciTegic.value.DoubleValue
-56.259

@<SCITEGIC>MOL_PROPERTY
W(SA)
SciTegic.value.DoubleValue
2.170

@<SCITEGIC>MOL_PROPERTY
Valence
SciTegic.value.DoubleValue
6.042

@<SCITEGIC>MOL_PROPERTY
Coulomb
SciTegic.value.DoubleValue
47.146

@<SCITEGIC>MOL_PROPERTY
VdW
SciTegic.value.DoubleValue
0.324

@<SCITEGIC>MOL_PROPERTY
VdW6
SciTegic.value.DoubleValue
-10.117

@<SCITEGIC>MOL_PROPERTY
VdW12
SciTegic.value.DoubleValue
10.441

@<SCITEGIC>MOL_PROPERTY
Bond
SciTegic.value.DoubleValue
0.350

@<SCITEGIC>MOL_PROPERTY
Angle
SciTegic.value.DoubleValue
2.482

@<SCITEGIC>MOL_PROPERTY
Pdih
SciTegic.value.DoubleValue
3.210

@<SCITEGIC>MOL_PROPERTY
Idih
SciTegic.value.DoubleValue
0.000

@<SCITEGIC>MOL_PROPERTY
Tether
SciTegic.value.DoubleValue
0.000

@<TRIPOS>MOLECULE
guest-s14_vm2.mol2 : vm2 ligand conformer 201
          26          25           1
SMALL
USER_CHARGES
 
@<TRIPOS>ATOM
       1    C1      18.416392   18.560311   21.357156 C.3        1 MOL1        -0.2400
       2    H1      18.311907   18.950158   22.375122 H          1 MOL1         0.0971
       3    H2      18.030337   19.320065   20.665275 H          1 MOL1         0.0971
       4    H3      17.773126   17.675047   21.271668 H          1 MOL1         0.0971
       5    C2      19.881357   18.199758   21.016541 C.3        1 MOL1        -0.1385
       6    H4      19.900097   17.812958   19.987985 H          1 MOL1         0.0960
       7    H5      20.237208   17.376513   21.650407 H          1 MOL1         0.0960
       8    C3      20.849728   19.406507   21.103543 C.3        1 MOL1        -0.1409
       9    H6      21.614344   19.278258   20.324867 H          1 MOL1         0.0960
      10    H7      20.322369   20.334803   20.844208 H          1 MOL1         0.0960
      11    C4      21.595993   19.577249   22.454698 C.3        1 MOL1        -0.1409
      12    H8      22.322630   20.390981   22.323211 H          1 MOL1         0.0960
      13    H9      22.196206   18.682417   22.669482 H          1 MOL1         0.0960
      14    C5      20.704964   19.932015   23.672349 C.3        1 MOL1        -0.1409
      15    H10     21.265923   20.614918   24.325556 H          1 MOL1         0.0960
      16    H11     19.820180   20.493016   23.342800 H          1 MOL1         0.0960
      17    C6      20.293618   18.699717   24.513110 C.3        1 MOL1        -0.1450
      18    H12     21.193448   18.208423   24.906539 H          1 MOL1         0.0960
      19    H13     19.778529   17.960777   23.889523 H          1 MOL1         0.0960
      20    C7      19.379827   19.100619   25.684261 C.3        1 MOL1         0.0172
      21    H14     19.898497   19.816614   26.327524 H          1 MOL1         0.0934
      22    H15     18.474871   19.577534   25.298215 H          1 MOL1         0.0934
      23    N1      18.959120   17.922825   26.539342 N.4        1 MOL1        -0.5956
      24    H16     18.351529   18.212304   27.313565 H          1 MOL1         0.3624
      25    H17     19.765539   17.445753   26.955605 H          1 MOL1         0.3624
      26    H18     18.440414   17.223351   25.998277 H          1 MOL1         0.3624
@<TRIPOS>BOND
    1     1     2    1
    2     1     3    1
    3     1     4    1
    4     1     5    1
    5     5     6    1
    6     5     7    1
    7     5     8    1
    8     8     9    1
    9     8    10    1
   10     8    11    1
   11    11    12    1
   12    11    13    1
   13    11    14    1
   14    14    15    1
   15    14    16    1
   16    14    17    1
   17    17    18    1
   18    17    19    1
   19    17    20    1
   20    20    21    1
   21    20    22    1
   22    20    23    1
   23    23    24    1
   24    23    25    1
   25    23    26    1
@<TRIPOS>SUBSTRUCTURE
       1 MOL1            1 RESIDUE      1      MOL     
@<SCITEGIC>MOL_PROPERTY
VM2 Rank
SciTegic.value.IntegerValue
201

@<SCITEGIC>MOL_PROPERTY
Conf_Id
SciTegic.value.IntegerValue
103

@<SCITEGIC>MOL_PROPERTY
Probability
SciTegic.value.DoubleValue
0.00

@<SCITEGIC>MOL_PROPERTY
Sum Probability
SciTegic.value.DoubleValue
100.00

@<SCITEGIC>MOL_PROPERTY
Delta G
SciTegic.value.DoubleValue
6.217

@<SCITEGIC>MOL_PROPERTY
G
SciTegic.value.DoubleValue
54.478

@<SCITEGIC>MOL_PROPERTY
E
SciTegic.value.DoubleValue
21.258

@<SCITEGIC>MOL_PROPERTY
-TS
SciTegic.value.DoubleValue
33.220

@<SCITEGIC>MOL_PROPERTY
U+W
SciTegic.value.DoubleValue
-0.204

@<SCITEGIC>MOL_PROPERTY
U
SciTegic.value.DoubleValue
53.883

@<SCITEGIC>MOL_PROPERTY
W
SciTegic.value.DoubleValue
-54.087

@<SCITEGIC>MOL_PROPERTY
W(PB)
SciTegic.value.DoubleValue
-56.325

@<SCITEGIC>MOL_PROPERTY
W(SA)
SciTegic.value.DoubleValue
2.237

@<SCITEGIC>MOL_PROPERTY
Valence
SciTegic.value.DoubleValue
7.744

@<SCITEGIC>MOL_PROPERTY
Coulomb
SciTegic.value.DoubleValue
45.678

@<SCITEGIC>MOL_PROPERTY
VdW
SciTegic.value.DoubleValue
0.461

@<SCITEGIC>MOL_PROPERTY
VdW6
SciTegic.value.DoubleValue
-8.645

@<SCITEGIC>MOL_PROPERTY
VdW12
SciTegic.value.DoubleValue
9.106

@<SCITEGIC>MOL_PROPERTY
Bond
SciTegic.value.DoubleValue
0.266

@<SCITEGIC>MOL_PROPERTY
Angle
SciTegic.value.DoubleValue
1.932

@<SCITEGIC>MOL_PROPERTY
Pdih
SciTegic.value.DoubleValue
5.545

@<SCITEGIC>MOL_PROPERTY
Idih
SciTegic.value.DoubleValue
0.000

@<SCITEGIC>MOL_PROPERTY
Tether
SciTegic.value.DoubleValue
0.000

@<TRIPOS>MOLECULE
guest-s14_vm2.mol2 : vm2 ligand conformer 202
          26          25           1
SMALL
USER_CHARGES
 
@<TRIPOS>ATOM
       1    C1      19.629406   20.010914   20.204912 C.3        1 MOL1        -0.2400
       2    H1      18.567637   19.891800   19.952936 H          1 MOL1         0.0971
       3    H2      19.698306   20.690602   21.061252 H          1 MOL1         0.0971
       4    H3      20.120598   20.498947   19.353179 H          1 MOL1         0.0971
       5    C2      20.284812   18.640206   20.494024 C.3        1 MOL1        -0.1385
       6    H4      21.361413   18.762187   20.677339 H          1 MOL1         0.0960
       7    H5      20.200984   18.027477   19.585486 H          1 MOL1         0.0960
       8    C3      19.621039   17.874841   21.667874 C.3        1 MOL1        -0.1409
       9    H6      18.557047   18.139043   21.740330 H          1 MOL1         0.0960
      10    H7      19.643249   16.802139   21.430675 H          1 MOL1         0.0960
      11    C4      20.311959   18.061331   23.043582 C.3        1 MOL1        -0.1409
      12    H8      21.347723   17.700180   22.980342 H          1 MOL1         0.0960
      13    H9      19.809170   17.405588   23.762321 H          1 MOL1         0.0960
      14    C5      20.311579   19.520551   23.563410 C.3        1 MOL1        -0.1409
      15    H10     20.942291   20.122273   22.896327 H          1 MOL1         0.0960
      16    H11     19.300970   19.947930   23.506841 H          1 MOL1         0.0960
      17    C6      20.868721   19.672840   25.002267 C.3        1 MOL1        -0.1450
      18    H12     21.286759   20.683506   25.101055 H          1 MOL1         0.0960
      19    H13     21.707157   18.983256   25.167594 H          1 MOL1         0.0960
      20    C7      19.810230   19.508015   26.113716 C.3        1 MOL1         0.0172
      21    H14     20.258993   19.772612   27.075019 H          1 MOL1         0.0934
      22    H15     18.977993   20.192944   25.930528 H          1 MOL1         0.0934
      23    N1      19.243254   18.110301   26.251217 N.4        1 MOL1        -0.5956
      24    H16     19.976587   17.419000   26.438662 H          1 MOL1         0.3624
      25    H17     18.755536   17.817809   25.399175 H          1 MOL1         0.3624
      26    H18     18.567826   18.048266   27.020808 H          1 MOL1         0.3624
@<TRIPOS>BOND
    1     1     2    1
    2     1     3    1
    3     1     4    1
    4     1     5    1
    5     5     6    1
    6     5     7    1
    7     5     8    1
    8     8     9    1
    9     8    10    1
   10     8    11    1
   11    11    12    1
   12    11    13    1
   13    11    14    1
   14    14    15    1
   15    14    16    1
   16    14    17    1
   17    17    18    1
   18    17    19    1
   19    17    20    1
   20    20    21    1
   21    20    22    1
   22    20    23    1
   23    23    24    1
   24    23    25    1
   25    23    26    1
@<TRIPOS>SUBSTRUCTURE
       1 MOL1            1 RESIDUE      1      MOL     
@<SCITEGIC>MOL_PROPERTY
VM2 Rank
SciTegic.value.IntegerValue
202

@<SCITEGIC>MOL_PROPERTY
Conf_Id
SciTegic.value.IntegerValue
526

@<SCITEGIC>MOL_PROPERTY
Probability
SciTegic.value.DoubleValue
0.00

@<SCITEGIC>MOL_PROPERTY
Sum Probability
SciTegic.value.DoubleValue
100.00

@<SCITEGIC>MOL_PROPERTY
Delta G
SciTegic.value.DoubleValue
6.235

@<SCITEGIC>MOL_PROPERTY
G
SciTegic.value.DoubleValue
54.496

@<SCITEGIC>MOL_PROPERTY
E
SciTegic.value.DoubleValue
21.867

@<SCITEGIC>MOL_PROPERTY
-TS
SciTegic.value.DoubleValue
32.629

@<SCITEGIC>MOL_PROPERTY
U+W
SciTegic.value.DoubleValue
0.405

@<SCITEGIC>MOL_PROPERTY
U
SciTegic.value.DoubleValue
54.286

@<SCITEGIC>MOL_PROPERTY
W
SciTegic.value.DoubleValue
-53.881

@<SCITEGIC>MOL_PROPERTY
W(PB)
SciTegic.value.DoubleValue
-56.124

@<SCITEGIC>MOL_PROPERTY
W(SA)
SciTegic.value.DoubleValue
2.243

@<SCITEGIC>MOL_PROPERTY
Valence
SciTegic.value.DoubleValue
7.200

@<SCITEGIC>MOL_PROPERTY
Coulomb
SciTegic.value.DoubleValue
46.254

@<SCITEGIC>MOL_PROPERTY
VdW
SciTegic.value.DoubleValue
0.832

@<SCITEGIC>MOL_PROPERTY
VdW6
SciTegic.value.DoubleValue
-8.602

@<SCITEGIC>MOL_PROPERTY
VdW12
SciTegic.value.DoubleValue
9.433

@<SCITEGIC>MOL_PROPERTY
Bond
SciTegic.value.DoubleValue
0.281

@<SCITEGIC>MOL_PROPERTY
Angle
SciTegic.value.DoubleValue
1.745

@<SCITEGIC>MOL_PROPERTY
Pdih
SciTegic.value.DoubleValue
5.174

@<SCITEGIC>MOL_PROPERTY
Idih
SciTegic.value.DoubleValue
0.000

@<SCITEGIC>MOL_PROPERTY
Tether
SciTegic.value.DoubleValue
0.000

@<TRIPOS>MOLECULE
guest-s14_vm2.mol2 : vm2 ligand conformer 203
          26          25           1
SMALL
USER_CHARGES
 
@<TRIPOS>ATOM
       1    C1      19.645027   18.255931   19.714104 C.3        1 MOL1        -0.2400
       2    H1      19.371521   19.201489   19.227951 H          1 MOL1         0.0971
       3    H2      20.600815   17.918512   19.292412 H          1 MOL1         0.0971
       4    H3      18.881357   17.510893   19.455777 H          1 MOL1         0.0971
       5    C2      19.743003   18.427612   21.244785 C.3        1 MOL1        -0.1385
       6    H4      19.989783   17.460431   21.704202 H          1 MOL1         0.0960
       7    H5      18.760444   18.728108   21.632317 H          1 MOL1         0.0960
       8    C3      20.808379   19.478264   21.633762 C.3        1 MOL1        -0.1409
       9    H6      21.763693   19.208280   21.162809 H          1 MOL1         0.0960
      10    H7      20.528254   20.455614   21.217130 H          1 MOL1         0.0960
      11    C4      21.037855   19.614914   23.160946 C.3        1 MOL1        -0.1409
      12    H8      21.853167   20.336149   23.310805 H          1 MOL1         0.0960
      13    H9      21.404074   18.662383   23.561840 H          1 MOL1         0.0960
      14    C5      19.797403   20.113806   23.951295 C.3        1 MOL1        -0.1409
      15    H10     20.124091   20.793137   24.750899 H          1 MOL1         0.0960
      16    H11     19.173749   20.728422   23.287568 H          1 MOL1         0.0960
      17    C6      18.928753   18.988872   24.575550 C.3        1 MOL1        -0.1450
      18    H12     18.895412   18.106658   23.925190 H          1 MOL1         0.0960
      19    H13     17.894719   19.351162   24.647985 H          1 MOL1         0.0960
      20    C7      19.373381   18.576993   25.994868 C.3        1 MOL1         0.0172
      21    H14     19.375947   19.455939   26.645068 H          1 MOL1         0.0934
      22    H15     18.657527   17.857735   26.401946 H          1 MOL1         0.0934
      23    N1      20.747199   17.942610   26.065691 N.4        1 MOL1        -0.5956
      24    H16     21.472327   18.581422   25.724835 H          1 MOL1         0.3624
      25    H17     20.800993   17.088258   25.501968 H          1 MOL1         0.3624
      26    H18     20.998284   17.685285   27.026463 H          1 MOL1         0.3624
@<TRIPOS>BOND
    1     1     2    1
    2     1     3    1
    3     1     4    1
    4     1     5    1
    5     5     6    1
    6     5     7    1
    7     5     8    1
    8     8     9    1
    9     8    10    1
   10     8    11    1
   11    11    12    1
   12    11    13    1
   13    11    14    1
   14    14    15    1
   15    14    16    1
   16    14    17    1
   17    17    18    1
   18    17    19    1
   19    17    20    1
   20    20    21    1
   21    20    22    1
   22    20    23    1
   23    23    24    1
   24    23    25    1
   25    23    26    1
@<TRIPOS>SUBSTRUCTURE
       1 MOL1            1 RESIDUE      1      MOL     
@<SCITEGIC>MOL_PROPERTY
VM2 Rank
SciTegic.value.IntegerValue
203

@<SCITEGIC>MOL_PROPERTY
Conf_Id
SciTegic.value.IntegerValue
236

@<SCITEGIC>MOL_PROPERTY
Probability
SciTegic.value.DoubleValue
0.00

@<SCITEGIC>MOL_PROPERTY
Sum Probability
SciTegic.value.DoubleValue
100.00

@<SCITEGIC>MOL_PROPERTY
Delta G
SciTegic.value.DoubleValue
6.269

@<SCITEGIC>MOL_PROPERTY
G
SciTegic.value.DoubleValue
54.530

@<SCITEGIC>MOL_PROPERTY
E
SciTegic.value.DoubleValue
21.556

@<SCITEGIC>MOL_PROPERTY
-TS
SciTegic.value.DoubleValue
32.974

@<SCITEGIC>MOL_PROPERTY
U+W
SciTegic.value.DoubleValue
0.094

@<SCITEGIC>MOL_PROPERTY
U
SciTegic.value.DoubleValue
54.162

@<SCITEGIC>MOL_PROPERTY
W
SciTegic.value.DoubleValue
-54.067

@<SCITEGIC>MOL_PROPERTY
W(PB)
SciTegic.value.DoubleValue
-56.303

@<SCITEGIC>MOL_PROPERTY
W(SA)
SciTegic.value.DoubleValue
2.236

@<SCITEGIC>MOL_PROPERTY
Valence
SciTegic.value.DoubleValue
7.004

@<SCITEGIC>MOL_PROPERTY
Coulomb
SciTegic.value.DoubleValue
46.400

@<SCITEGIC>MOL_PROPERTY
VdW
SciTegic.value.DoubleValue
0.758

@<SCITEGIC>MOL_PROPERTY
VdW6
SciTegic.value.DoubleValue
-8.752

@<SCITEGIC>MOL_PROPERTY
VdW12
SciTegic.value.DoubleValue
9.510

@<SCITEGIC>MOL_PROPERTY
Bond
SciTegic.value.DoubleValue
0.280

@<SCITEGIC>MOL_PROPERTY
Angle
SciTegic.value.DoubleValue
1.396

@<SCITEGIC>MOL_PROPERTY
Pdih
SciTegic.value.DoubleValue
5.328

@<SCITEGIC>MOL_PROPERTY
Idih
SciTegic.value.DoubleValue
0.000

@<SCITEGIC>MOL_PROPERTY
Tether
SciTegic.value.DoubleValue
0.000

@<TRIPOS>MOLECULE
guest-s14_vm2.mol2 : vm2 ligand conformer 204
          26          25           1
SMALL
USER_CHARGES
 
@<TRIPOS>ATOM
       1    C1      18.541318   19.669911   20.658921 C.3        1 MOL1        -0.2400
       2    H1      19.040950   20.258851   19.878709 H          1 MOL1         0.0971
       3    H2      17.711627   19.124866   20.190372 H          1 MOL1         0.0971
       4    H3      18.115193   20.366352   21.392764 H          1 MOL1         0.0971
       5    C2      19.526505   18.690369   21.330578 C.3        1 MOL1        -0.1385
       6    H4      19.906161   17.984964   20.578204 H          1 MOL1         0.0960
       7    H5      18.989359   18.087756   22.072886 H          1 MOL1         0.0960
       8    C3      20.715733   19.434818   21.984023 C.3        1 MOL1        -0.1409
       9    H6      21.283036   19.933150   21.185734 H          1 MOL1         0.0960
      10    H7      20.361283   20.238439   22.642884 H          1 MOL1         0.0960
      11    C4      21.674472   18.492613   22.755461 C.3        1 MOL1        -0.1409
      12    H8      22.701808   18.842703   22.583756 H          1 MOL1         0.0960
      13    H9      21.636794   17.480410   22.329726 H          1 MOL1         0.0960
      14    C5      21.459038   18.430676   24.291913 C.3        1 MOL1        -0.1409
      15    H10     22.255666   17.797635   24.706629 H          1 MOL1         0.0960
      16    H11     21.619927   19.423571   24.731293 H          1 MOL1         0.0960
      17    C6      20.100512   17.843192   24.757839 C.3        1 MOL1        -0.1450
      18    H12     20.218450   17.438146   25.771686 H          1 MOL1         0.0960
      19    H13     19.831637   16.988150   24.124016 H          1 MOL1         0.0960
      20    C7      18.936986   18.856838   24.781175 C.3        1 MOL1         0.0172
      21    H14     18.805272   19.303713   23.794003 H          1 MOL1         0.0934
      22    H15     18.011749   18.336449   25.043095 H          1 MOL1         0.0934
      23    N1      19.126437   19.980583   25.781090 N.4        1 MOL1        -0.5956
      24    H16     18.329892   20.626808   25.783419 H          1 MOL1         0.3624
      25    H17     19.963088   20.534888   25.575600 H          1 MOL1         0.3624
      26    H18     19.225967   19.625270   26.737521 H          1 MOL1         0.3624
@<TRIPOS>BOND
    1     1     2    1
    2     1     3    1
    3     1     4    1
    4     1     5    1
    5     5     6    1
    6     5     7    1
    7     5     8    1
    8     8     9    1
    9     8    10    1
   10     8    11    1
   11    11    12    1
   12    11    13    1
   13    11    14    1
   14    14    15    1
   15    14    16    1
   16    14    17    1
   17    17    18    1
   18    17    19    1
   19    17    20    1
   20    20    21    1
   21    20    22    1
   22    20    23    1
   23    23    24    1
   24    23    25    1
   25    23    26    1
@<TRIPOS>SUBSTRUCTURE
       1 MOL1            1 RESIDUE      1      MOL     
@<SCITEGIC>MOL_PROPERTY
VM2 Rank
SciTegic.value.IntegerValue
204

@<SCITEGIC>MOL_PROPERTY
Conf_Id
SciTegic.value.IntegerValue
824

@<SCITEGIC>MOL_PROPERTY
Probability
SciTegic.value.DoubleValue
0.00

@<SCITEGIC>MOL_PROPERTY
Sum Probability
SciTegic.value.DoubleValue
100.00

@<SCITEGIC>MOL_PROPERTY
Delta G
SciTegic.value.DoubleValue
6.314

@<SCITEGIC>MOL_PROPERTY
G
SciTegic.value.DoubleValue
54.575

@<SCITEGIC>MOL_PROPERTY
E
SciTegic.value.DoubleValue
21.208

@<SCITEGIC>MOL_PROPERTY
-TS
SciTegic.value.DoubleValue
33.367

@<SCITEGIC>MOL_PROPERTY
U+W
SciTegic.value.DoubleValue
-0.254

@<SCITEGIC>MOL_PROPERTY
U
SciTegic.value.DoubleValue
54.016

@<SCITEGIC>MOL_PROPERTY
W
SciTegic.value.DoubleValue
-54.269

@<SCITEGIC>MOL_PROPERTY
W(PB)
SciTegic.value.DoubleValue
-56.489

@<SCITEGIC>MOL_PROPERTY
W(SA)
SciTegic.value.DoubleValue
2.219

@<SCITEGIC>MOL_PROPERTY
Valence
SciTegic.value.DoubleValue
7.241

@<SCITEGIC>MOL_PROPERTY
Coulomb
SciTegic.value.DoubleValue
46.463

@<SCITEGIC>MOL_PROPERTY
VdW
SciTegic.value.DoubleValue
0.312

@<SCITEGIC>MOL_PROPERTY
VdW6
SciTegic.value.DoubleValue
-9.614

@<SCITEGIC>MOL_PROPERTY
VdW12
SciTegic.value.DoubleValue
9.926

@<SCITEGIC>MOL_PROPERTY
Bond
SciTegic.value.DoubleValue
0.277

@<SCITEGIC>MOL_PROPERTY
Angle
SciTegic.value.DoubleValue
1.893

@<SCITEGIC>MOL_PROPERTY
Pdih
SciTegic.value.DoubleValue
5.071

@<SCITEGIC>MOL_PROPERTY
Idih
SciTegic.value.DoubleValue
0.000

@<SCITEGIC>MOL_PROPERTY
Tether
SciTegic.value.DoubleValue
0.000

@<TRIPOS>MOLECULE
guest-s14_vm2.mol2 : vm2 ligand conformer 205
          26          25           1
SMALL
USER_CHARGES
 
@<TRIPOS>ATOM
       1    C1      21.060832   20.304414   21.445696 C.3        1 MOL1        -0.2400
       2    H1      22.130512   20.548907   21.417456 H          1 MOL1         0.0971
       3    H2      20.546759   20.979833   20.749636 H          1 MOL1         0.0971
       4    H3      20.696436   20.522700   22.455010 H          1 MOL1         0.0971
       5    C2      20.832623   18.827200   21.048324 C.3        1 MOL1        -0.1385
       6    H4      21.419577   18.156288   21.689818 H          1 MOL1         0.0960
       7    H5      21.228381   18.689205   20.032340 H          1 MOL1         0.0960
       8    C3      19.339934   18.410769   21.053082 C.3        1 MOL1        -0.1409
       9    H6      18.706412   19.269061   20.790246 H          1 MOL1         0.0960
      10    H7      19.193739   17.681836   20.243944 H          1 MOL1         0.0960
      11    C4      18.827240   17.751097   22.362152 C.3        1 MOL1        -0.1409
      12    H8      19.403530   16.840481   22.576115 H          1 MOL1         0.0960
      13    H9      17.800639   17.408443   22.172079 H          1 MOL1         0.0960
      14    C5      18.794551   18.671978   23.608494 C.3        1 MOL1        -0.1409
      15    H10     18.642037   19.715929   23.303417 H          1 MOL1         0.0960
      16    H11     17.916617   18.405901   24.213593 H          1 MOL1         0.0960
      17    C6      20.048785   18.538190   24.504954 C.3        1 MOL1        -0.1450
      18    H12     20.958823   18.738904   23.928971 H          1 MOL1         0.0960
      19    H13     20.128248   17.505992   24.871150 H          1 MOL1         0.0960
      20    C7      19.984978   19.499828   25.704331 C.3        1 MOL1         0.0172
      21    H14     19.920548   20.530850   25.346181 H          1 MOL1         0.0934
      22    H15     19.093613   19.286275   26.300414 H          1 MOL1         0.0934
      23    N1      21.192058   19.395524   26.613966 N.4        1 MOL1        -0.5956
      24    H16     21.128809   20.044113   27.406254 H          1 MOL1         0.3624
      25    H17     22.063501   19.612485   26.119413 H          1 MOL1         0.3624
      26    H18     21.293915   18.454019   27.006873 H          1 MOL1         0.3624
@<TRIPOS>BOND
    1     1     2    1
    2     1     3    1
    3     1     4    1
    4     1     5    1
    5     5     6    1
    6     5     7    1
    7     5     8    1
    8     8     9    1
    9     8    10    1
   10     8    11    1
   11    11    12    1
   12    11    13    1
   13    11    14    1
   14    14    15    1
   15    14    16    1
   16    14    17    1
   17    17    18    1
   18    17    19    1
   19    17    20    1
   20    20    21    1
   21    20    22    1
   22    20    23    1
   23    23    24    1
   24    23    25    1
   25    23    26    1
@<TRIPOS>SUBSTRUCTURE
       1 MOL1            1 RESIDUE      1      MOL     
@<SCITEGIC>MOL_PROPERTY
VM2 Rank
SciTegic.value.IntegerValue
205

@<SCITEGIC>MOL_PROPERTY
Conf_Id
SciTegic.value.IntegerValue
684

@<SCITEGIC>MOL_PROPERTY
Probability
SciTegic.value.DoubleValue
0.00

@<SCITEGIC>MOL_PROPERTY
Sum Probability
SciTegic.value.DoubleValue
100.00

@<SCITEGIC>MOL_PROPERTY
Delta G
SciTegic.value.DoubleValue
6.319

@<SCITEGIC>MOL_PROPERTY
G
SciTegic.value.DoubleValue
54.581

@<SCITEGIC>MOL_PROPERTY
E
SciTegic.value.DoubleValue
21.360

@<SCITEGIC>MOL_PROPERTY
-TS
SciTegic.value.DoubleValue
33.220

@<SCITEGIC>MOL_PROPERTY
U+W
SciTegic.value.DoubleValue
-0.101

@<SCITEGIC>MOL_PROPERTY
U
SciTegic.value.DoubleValue
53.883

@<SCITEGIC>MOL_PROPERTY
W
SciTegic.value.DoubleValue
-53.985

@<SCITEGIC>MOL_PROPERTY
W(PB)
SciTegic.value.DoubleValue
-56.249

@<SCITEGIC>MOL_PROPERTY
W(SA)
SciTegic.value.DoubleValue
2.264

@<SCITEGIC>MOL_PROPERTY
Valence
SciTegic.value.DoubleValue
7.744

@<SCITEGIC>MOL_PROPERTY
Coulomb
SciTegic.value.DoubleValue
45.678

@<SCITEGIC>MOL_PROPERTY
VdW
SciTegic.value.DoubleValue
0.462

@<SCITEGIC>MOL_PROPERTY
VdW6
SciTegic.value.DoubleValue
-8.645

@<SCITEGIC>MOL_PROPERTY
VdW12
SciTegic.value.DoubleValue
9.106

@<SCITEGIC>MOL_PROPERTY
Bond
SciTegic.value.DoubleValue
0.266

@<SCITEGIC>MOL_PROPERTY
Angle
SciTegic.value.DoubleValue
1.932

@<SCITEGIC>MOL_PROPERTY
Pdih
SciTegic.value.DoubleValue
5.545

@<SCITEGIC>MOL_PROPERTY
Idih
SciTegic.value.DoubleValue
0.000

@<SCITEGIC>MOL_PROPERTY
Tether
SciTegic.value.DoubleValue
0.000

@<TRIPOS>MOLECULE
guest-s14_vm2.mol2 : vm2 ligand conformer 206
          26          25           1
SMALL
USER_CHARGES
 
@<TRIPOS>ATOM
       1    C1      18.588659   19.598010   21.153971 C.3        1 MOL1        -0.2400
       2    H1      18.529453   19.820700   22.224414 H          1 MOL1         0.0971
       3    H2      18.781964   20.540036   20.624661 H          1 MOL1         0.0971
       4    H3      17.603703   19.233391   20.835051 H          1 MOL1         0.0971
       5    C2      19.682200   18.552241   20.833698 C.3        1 MOL1        -0.1385
       6    H4      19.667073   18.374434   19.749241 H          1 MOL1         0.0960
       7    H5      19.443725   17.585474   21.296999 H          1 MOL1         0.0960
       8    C3      21.108584   19.006576   21.234635 C.3        1 MOL1        -0.1409
       9    H6      21.810975   18.586536   20.501403 H          1 MOL1         0.0960
      10    H7      21.200744   20.096855   21.135257 H          1 MOL1         0.0960
      11    C4      21.591123   18.556613   22.640515 C.3        1 MOL1        -0.1409
      12    H8      22.648629   18.842391   22.726945 H          1 MOL1         0.0960
      13    H9      21.579046   17.460214   22.710512 H          1 MOL1         0.0960
      14    C5      20.833770   19.180492   23.840288 C.3        1 MOL1        -0.1409
      15    H10     21.558329   19.358367   24.646178 H          1 MOL1         0.0960
      16    H11     20.440632   20.168538   23.565943 H          1 MOL1         0.0960
      17    C6      19.705255   18.272151   24.391163 C.3        1 MOL1        -0.1450
      18    H12     20.134581   17.337996   24.776895 H          1 MOL1         0.0960
      19    H13     19.021778   17.984022   23.584828 H          1 MOL1         0.0960
      20    C7      18.883523   18.954454   25.501576 C.3        1 MOL1         0.0172
      21    H14     18.455293   19.886209   25.122341 H          1 MOL1         0.0934
      22    H15     18.061582   18.298011   25.799978 H          1 MOL1         0.0934
      23    N1      19.687886   19.278462   26.745155 N.4        1 MOL1        -0.5956
      24    H16     20.458151   19.922791   26.541570 H          1 MOL1         0.3624
      25    H17     20.098582   18.437077   27.162699 H          1 MOL1         0.3624
      26    H18     19.109807   19.720223   27.468276 H          1 MOL1         0.3624
@<TRIPOS>BOND
    1     1     2    1
    2     1     3    1
    3     1     4    1
    4     1     5    1
    5     5     6    1
    6     5     7    1
    7     5     8    1
    8     8     9    1
    9     8    10    1
   10     8    11    1
   11    11    12    1
   12    11    13    1
   13    11    14    1
   14    14    15    1
   15    14    16    1
   16    14    17    1
   17    17    18    1
   18    17    19    1
   19    17    20    1
   20    20    21    1
   21    20    22    1
   22    20    23    1
   23    23    24    1
   24    23    25    1
   25    23    26    1
@<TRIPOS>SUBSTRUCTURE
       1 MOL1            1 RESIDUE      1      MOL     
@<SCITEGIC>MOL_PROPERTY
VM2 Rank
SciTegic.value.IntegerValue
206

@<SCITEGIC>MOL_PROPERTY
Conf_Id
SciTegic.value.IntegerValue
791

@<SCITEGIC>MOL_PROPERTY
Probability
SciTegic.value.DoubleValue
0.00

@<SCITEGIC>MOL_PROPERTY
Sum Probability
SciTegic.value.DoubleValue
100.00

@<SCITEGIC>MOL_PROPERTY
Delta G
SciTegic.value.DoubleValue
6.541

@<SCITEGIC>MOL_PROPERTY
G
SciTegic.value.DoubleValue
54.802

@<SCITEGIC>MOL_PROPERTY
E
SciTegic.value.DoubleValue
21.466

@<SCITEGIC>MOL_PROPERTY
-TS
SciTegic.value.DoubleValue
33.336

@<SCITEGIC>MOL_PROPERTY
U+W
SciTegic.value.DoubleValue
0.004

@<SCITEGIC>MOL_PROPERTY
U
SciTegic.value.DoubleValue
54.063

@<SCITEGIC>MOL_PROPERTY
W
SciTegic.value.DoubleValue
-54.059

@<SCITEGIC>MOL_PROPERTY
W(PB)
SciTegic.value.DoubleValue
-56.251

@<SCITEGIC>MOL_PROPERTY
W(SA)
SciTegic.value.DoubleValue
2.192

@<SCITEGIC>MOL_PROPERTY
Valence
SciTegic.value.DoubleValue
7.875

@<SCITEGIC>MOL_PROPERTY
Coulomb
SciTegic.value.DoubleValue
45.591

@<SCITEGIC>MOL_PROPERTY
VdW
SciTegic.value.DoubleValue
0.597

@<SCITEGIC>MOL_PROPERTY
VdW6
SciTegic.value.DoubleValue
-9.142

@<SCITEGIC>MOL_PROPERTY
VdW12
SciTegic.value.DoubleValue
9.739

@<SCITEGIC>MOL_PROPERTY
Bond
SciTegic.value.DoubleValue
0.290

@<SCITEGIC>MOL_PROPERTY
Angle
SciTegic.value.DoubleValue
1.959

@<SCITEGIC>MOL_PROPERTY
Pdih
SciTegic.value.DoubleValue
5.626

@<SCITEGIC>MOL_PROPERTY
Idih
SciTegic.value.DoubleValue
0.000

@<SCITEGIC>MOL_PROPERTY
Tether
SciTegic.value.DoubleValue
0.000

@<TRIPOS>MOLECULE
guest-s14_vm2.mol2 : vm2 ligand conformer 207
          26          25           1
SMALL
USER_CHARGES
 
@<TRIPOS>ATOM
       1    C1      18.739237   18.686406   20.034037 C.3        1 MOL1        -0.2400
       2    H1      17.793033   18.684031   20.590718 H          1 MOL1         0.0971
       3    H2      18.871830   19.681468   19.589581 H          1 MOL1         0.0971
       4    H3      18.649947   17.961018   19.214951 H          1 MOL1         0.0971
       5    C2      19.925763   18.326998   20.953088 C.3        1 MOL1        -0.1385
       6    H4      20.851510   18.303679   20.361037 H          1 MOL1         0.0960
       7    H5      19.781451   17.313926   21.353468 H          1 MOL1         0.0960
       8    C3      20.075501   19.335614   22.113258 C.3        1 MOL1        -0.1409
       9    H6      20.231642   20.342063   21.700584 H          1 MOL1         0.0960
      10    H7      19.139144   19.383719   22.681127 H          1 MOL1         0.0960
      11    C4      21.265232   18.978052   23.038035 C.3        1 MOL1        -0.1409
      12    H8      22.190446   19.086258   22.454938 H          1 MOL1         0.0960
      13    H9      21.228493   17.923435   23.341674 H          1 MOL1         0.0960
      14    C5      21.361751   19.890710   24.287286 C.3        1 MOL1        -0.1409
      15    H10     22.425759   20.062341   24.501554 H          1 MOL1         0.0960
      16    H11     20.943515   20.882261   24.065096 H          1 MOL1         0.0960
      17    C6      20.715023   19.320130   25.578020 C.3        1 MOL1        -0.1450
      18    H12     20.901178   20.035336   26.390210 H          1 MOL1         0.0960
      19    H13     21.220696   18.391991   25.875904 H          1 MOL1         0.0960
      20    C7      19.193034   19.083255   25.502083 C.3        1 MOL1         0.0172
      21    H14     18.784768   19.057229   26.516047 H          1 MOL1         0.0934
      22    H15     18.715119   19.906557   24.964603 H          1 MOL1         0.0934
      23    N1      18.805459   17.777835   24.835193 N.4        1 MOL1        -0.5956
      24    H16     19.182553   16.968506   25.339310 H          1 MOL1         0.3624
      25    H17     19.158811   17.731954   23.874008 H          1 MOL1         0.3624
      26    H18     17.787273   17.658184   24.795364 H          1 MOL1         0.3624
@<TRIPOS>BOND
    1     1     2    1
    2     1     3    1
    3     1     4    1
    4     1     5    1
    5     5     6    1
    6     5     7    1
    7     5     8    1
    8     8     9    1
    9     8    10    1
   10     8    11    1
   11    11    12    1
   12    11    13    1
   13    11    14    1
   14    14    15    1
   15    14    16    1
   16    14    17    1
   17    17    18    1
   18    17    19    1
   19    17    20    1
   20    20    21    1
   21    20    22    1
   22    20    23    1
   23    23    24    1
   24    23    25    1
   25    23    26    1
@<TRIPOS>SUBSTRUCTURE
       1 MOL1            1 RESIDUE      1      MOL     
@<SCITEGIC>MOL_PROPERTY
VM2 Rank
SciTegic.value.IntegerValue
207

@<SCITEGIC>MOL_PROPERTY
Conf_Id
SciTegic.value.IntegerValue
175

@<SCITEGIC>MOL_PROPERTY
Probability
SciTegic.value.DoubleValue
0.00

@<SCITEGIC>MOL_PROPERTY
Sum Probability
SciTegic.value.DoubleValue
100.00

@<SCITEGIC>MOL_PROPERTY
Delta G
SciTegic.value.DoubleValue
6.833

@<SCITEGIC>MOL_PROPERTY
G
SciTegic.value.DoubleValue
55.094

@<SCITEGIC>MOL_PROPERTY
E
SciTegic.value.DoubleValue
21.961

@<SCITEGIC>MOL_PROPERTY
-TS
SciTegic.value.DoubleValue
33.133

@<SCITEGIC>MOL_PROPERTY
U+W
SciTegic.value.DoubleValue
0.499

@<SCITEGIC>MOL_PROPERTY
U
SciTegic.value.DoubleValue
53.726

@<SCITEGIC>MOL_PROPERTY
W
SciTegic.value.DoubleValue
-53.227

@<SCITEGIC>MOL_PROPERTY
W(PB)
SciTegic.value.DoubleValue
-55.471

@<SCITEGIC>MOL_PROPERTY
W(SA)
SciTegic.value.DoubleValue
2.244

@<SCITEGIC>MOL_PROPERTY
Valence
SciTegic.value.DoubleValue
6.198

@<SCITEGIC>MOL_PROPERTY
Coulomb
SciTegic.value.DoubleValue
47.155

@<SCITEGIC>MOL_PROPERTY
VdW
SciTegic.value.DoubleValue
0.373

@<SCITEGIC>MOL_PROPERTY
VdW6
SciTegic.value.DoubleValue
-8.927

@<SCITEGIC>MOL_PROPERTY
VdW12
SciTegic.value.DoubleValue
9.300

@<SCITEGIC>MOL_PROPERTY
Bond
SciTegic.value.DoubleValue
0.233

@<SCITEGIC>MOL_PROPERTY
Angle
SciTegic.value.DoubleValue
1.463

@<SCITEGIC>MOL_PROPERTY
Pdih
SciTegic.value.DoubleValue
4.503

@<SCITEGIC>MOL_PROPERTY
Idih
SciTegic.value.DoubleValue
0.000

@<SCITEGIC>MOL_PROPERTY
Tether
SciTegic.value.DoubleValue
0.000

@<TRIPOS>MOLECULE
guest-s14_vm2.mol2 : vm2 ligand conformer 208
          26          25           1
SMALL
USER_CHARGES
 
@<TRIPOS>ATOM
       1    C1      20.879836   20.098154   20.105586 C.3        1 MOL1        -0.2400
       2    H1      21.227610   20.949251   20.705493 H          1 MOL1         0.0971
       3    H2      21.619321   19.919338   19.314228 H          1 MOL1         0.0971
       4    H3      19.934499   20.382244   19.625066 H          1 MOL1         0.0971
       5    C2      20.701278   18.838455   20.979055 C.3        1 MOL1        -0.1385
       6    H4      21.669811   18.559400   21.416681 H          1 MOL1         0.0960
       7    H5      20.386805   17.997096   20.345573 H          1 MOL1         0.0960
       8    C3      19.662012   19.062923   22.099438 C.3        1 MOL1        -0.1409
       9    H6      19.959011   19.924538   22.708507 H          1 MOL1         0.0960
      10    H7      18.695487   19.328877   21.649197 H          1 MOL1         0.0960
      11    C4      19.480247   17.800828   22.978417 C.3        1 MOL1        -0.1409
      12    H8      20.449218   17.409504   23.315648 H          1 MOL1         0.0960
      13    H9      19.044678   17.011558   22.349875 H          1 MOL1         0.0960
      14    C5      18.545962   18.033650   24.193239 C.3        1 MOL1        -0.1409
      15    H10     17.809781   18.815504   23.960422 H          1 MOL1         0.0960
      16    H11     17.960552   17.117444   24.352434 H          1 MOL1         0.0960
      17    C6      19.263957   18.363164   25.529547 C.3        1 MOL1        -0.1450
      18    H12     19.904016   17.523664   25.831950 H          1 MOL1         0.0960
      19    H13     18.496163   18.449259   26.309871 H          1 MOL1         0.0960
      20    C7      20.082736   19.670038   25.531748 C.3        1 MOL1         0.0172
      21    H14     19.539219   20.450063   24.992057 H          1 MOL1         0.0934
      22    H15     20.219807   20.003688   26.563915 H          1 MOL1         0.0934
      23    N1      21.464972   19.531788   24.923969 N.4        1 MOL1        -0.5956
      24    H16     21.976603   20.421008   24.935282 H          1 MOL1         0.3624
      25    H17     21.413058   19.218686   23.949234 H          1 MOL1         0.3624
      26    H18     22.036765   18.850836   25.434560 H          1 MOL1         0.3624
@<TRIPOS>BOND
    1     1     2    1
    2     1     3    1
    3     1     4    1
    4     1     5    1
    5     5     6    1
    6     5     7    1
    7     5     8    1
    8     8     9    1
    9     8    10    1
   10     8    11    1
   11    11    12    1
   12    11    13    1
   13    11    14    1
   14    14    15    1
   15    14    16    1
   16    14    17    1
   17    17    18    1
   18    17    19    1
   19    17    20    1
   20    20    21    1
   21    20    22    1
   22    20    23    1
   23    23    24    1
   24    23    25    1
   25    23    26    1
@<TRIPOS>SUBSTRUCTURE
       1 MOL1            1 RESIDUE      1      MOL     
@<SCITEGIC>MOL_PROPERTY
VM2 Rank
SciTegic.value.IntegerValue
208

@<SCITEGIC>MOL_PROPERTY
Conf_Id
SciTegic.value.IntegerValue
1498

@<SCITEGIC>MOL_PROPERTY
Probability
SciTegic.value.DoubleValue
0.00

@<SCITEGIC>MOL_PROPERTY
Sum Probability
SciTegic.value.DoubleValue
100.00

@<SCITEGIC>MOL_PROPERTY
Delta G
SciTegic.value.DoubleValue
6.834

@<SCITEGIC>MOL_PROPERTY
G
SciTegic.value.DoubleValue
55.095

@<SCITEGIC>MOL_PROPERTY
E
SciTegic.value.DoubleValue
21.962

@<SCITEGIC>MOL_PROPERTY
-TS
SciTegic.value.DoubleValue
33.133

@<SCITEGIC>MOL_PROPERTY
U+W
SciTegic.value.DoubleValue
0.500

@<SCITEGIC>MOL_PROPERTY
U
SciTegic.value.DoubleValue
53.726

@<SCITEGIC>MOL_PROPERTY
W
SciTegic.value.DoubleValue
-53.226

@<SCITEGIC>MOL_PROPERTY
W(PB)
SciTegic.value.DoubleValue
-55.465

@<SCITEGIC>MOL_PROPERTY
W(SA)
SciTegic.value.DoubleValue
2.239

@<SCITEGIC>MOL_PROPERTY
Valence
SciTegic.value.DoubleValue
6.198

@<SCITEGIC>MOL_PROPERTY
Coulomb
SciTegic.value.DoubleValue
47.155

@<SCITEGIC>MOL_PROPERTY
VdW
SciTegic.value.DoubleValue
0.373

@<SCITEGIC>MOL_PROPERTY
VdW6
SciTegic.value.DoubleValue
-8.927

@<SCITEGIC>MOL_PROPERTY
VdW12
SciTegic.value.DoubleValue
9.300

@<SCITEGIC>MOL_PROPERTY
Bond
SciTegic.value.DoubleValue
0.233

@<SCITEGIC>MOL_PROPERTY
Angle
SciTegic.value.DoubleValue
1.463

@<SCITEGIC>MOL_PROPERTY
Pdih
SciTegic.value.DoubleValue
4.503

@<SCITEGIC>MOL_PROPERTY
Idih
SciTegic.value.DoubleValue
0.000

@<SCITEGIC>MOL_PROPERTY
Tether
SciTegic.value.DoubleValue
0.000

@<TRIPOS>MOLECULE
guest-s14_vm2.mol2 : vm2 ligand conformer 209
          26          25           1
SMALL
USER_CHARGES
 
@<TRIPOS>ATOM
       1    C1      19.990769   20.274006   20.066320 C.3        1 MOL1        -0.2400
       2    H1      19.639243   21.153430   20.621537 H          1 MOL1         0.0971
       3    H2      21.035382   20.447391   19.776608 H          1 MOL1         0.0971
       4    H3      19.395175   20.195514   19.147551 H          1 MOL1         0.0971
       5    C2      19.855169   18.991751   20.914653 C.3        1 MOL1        -0.1385
       6    H4      20.182679   18.127449   20.320157 H          1 MOL1         0.0960
       7    H5      18.795418   18.828736   21.150438 H          1 MOL1         0.0960
       8    C3      20.689970   19.077716   22.214566 C.3        1 MOL1        -0.1409
       9    H6      21.739577   19.259502   21.944899 H          1 MOL1         0.0960
      10    H7      20.362245   19.947401   22.796411 H          1 MOL1         0.0960
      11    C4      20.615325   17.785833   23.070224 C.3        1 MOL1        -0.1409
      12    H8      21.446337   17.758124   23.787371 H          1 MOL1         0.0960
      13    H9      20.780265   16.924647   22.407893 H          1 MOL1         0.0960
      14    C5      19.271084   17.589414   23.821371 C.3        1 MOL1        -0.1409
      15    H10     18.446208   18.059931   23.271473 H          1 MOL1         0.0960
      16    H11     19.041740   16.514860   23.829134 H          1 MOL1         0.0960
      17    C6      19.257794   18.076346   25.294901 C.3        1 MOL1        -0.1450
      18    H12     19.995992   17.518200   25.886011 H          1 MOL1         0.0960
      19    H13     18.278874   17.822069   25.722551 H          1 MOL1         0.0960
      20    C7      19.472251   19.591454   25.484807 C.3        1 MOL1         0.0172
      21    H14     18.942325   20.142586   24.703385 H          1 MOL1         0.0934
      22    H15     19.060205   19.892184   26.451892 H          1 MOL1         0.0934
      23    N1      20.928638   20.012480   25.474159 N.4        1 MOL1        -0.5956
      24    H16     21.385252   19.755187   24.593754 H          1 MOL1         0.3624
      25    H17     21.456641   19.568616   26.232753 H          1 MOL1         0.3624
      26    H18     21.033070   21.026434   25.590305 H          1 MOL1         0.3624
@<TRIPOS>BOND
    1     1     2    1
    2     1     3    1
    3     1     4    1
    4     1     5    1
    5     5     6    1
    6     5     7    1
    7     5     8    1
    8     8     9    1
    9     8    10    1
   10     8    11    1
   11    11    12    1
   12    11    13    1
   13    11    14    1
   14    14    15    1
   15    14    16    1
   16    14    17    1
   17    17    18    1
   18    17    19    1
   19    17    20    1
   20    20    21    1
   21    20    22    1
   22    20    23    1
   23    23    24    1
   24    23    25    1
   25    23    26    1
@<TRIPOS>SUBSTRUCTURE
       1 MOL1            1 RESIDUE      1      MOL     
@<SCITEGIC>MOL_PROPERTY
VM2 Rank
SciTegic.value.IntegerValue
209

@<SCITEGIC>MOL_PROPERTY
Conf_Id
SciTegic.value.IntegerValue
533

@<SCITEGIC>MOL_PROPERTY
Probability
SciTegic.value.DoubleValue
0.00

@<SCITEGIC>MOL_PROPERTY
Sum Probability
SciTegic.value.DoubleValue
100.00

@<SCITEGIC>MOL_PROPERTY
Delta G
SciTegic.value.DoubleValue
6.868

@<SCITEGIC>MOL_PROPERTY
G
SciTegic.value.DoubleValue
55.129

@<SCITEGIC>MOL_PROPERTY
E
SciTegic.value.DoubleValue
21.976

@<SCITEGIC>MOL_PROPERTY
-TS
SciTegic.value.DoubleValue
33.153

@<SCITEGIC>MOL_PROPERTY
U+W
SciTegic.value.DoubleValue
0.514

@<SCITEGIC>MOL_PROPERTY
U
SciTegic.value.DoubleValue
54.574

@<SCITEGIC>MOL_PROPERTY
W
SciTegic.value.DoubleValue
-54.060

@<SCITEGIC>MOL_PROPERTY
W(PB)
SciTegic.value.DoubleValue
-56.307

@<SCITEGIC>MOL_PROPERTY
W(SA)
SciTegic.value.DoubleValue
2.247

@<SCITEGIC>MOL_PROPERTY
Valence
SciTegic.value.DoubleValue
6.966

@<SCITEGIC>MOL_PROPERTY
Coulomb
SciTegic.value.DoubleValue
47.041

@<SCITEGIC>MOL_PROPERTY
VdW
SciTegic.value.DoubleValue
0.567

@<SCITEGIC>MOL_PROPERTY
VdW6
SciTegic.value.DoubleValue
-9.189

@<SCITEGIC>MOL_PROPERTY
VdW12
SciTegic.value.DoubleValue
9.756

@<SCITEGIC>MOL_PROPERTY
Bond
SciTegic.value.DoubleValue
0.281

@<SCITEGIC>MOL_PROPERTY
Angle
SciTegic.value.DoubleValue
1.617

@<SCITEGIC>MOL_PROPERTY
Pdih
SciTegic.value.DoubleValue
5.069

@<SCITEGIC>MOL_PROPERTY
Idih
SciTegic.value.DoubleValue
0.000

@<SCITEGIC>MOL_PROPERTY
Tether
SciTegic.value.DoubleValue
0.000

@<TRIPOS>MOLECULE
guest-s14_vm2.mol2 : vm2 ligand conformer 210
          26          25           1
SMALL
USER_CHARGES
 
@<TRIPOS>ATOM
       1    C1      18.945284   17.980919   20.885697 C.3        1 MOL1        -0.2400
       2    H1      18.709295   16.916395   20.759610 H          1 MOL1         0.0971
       3    H2      18.321384   18.366943   21.698862 H          1 MOL1         0.0971
       4    H3      18.651827   18.498416   19.963156 H          1 MOL1         0.0971
       5    C2      20.453958   18.171893   21.166922 C.3        1 MOL1        -0.1385
       6    H4      21.008789   17.767989   20.308491 H          1 MOL1         0.0960
       7    H5      20.767714   17.573071   22.032463 H          1 MOL1         0.0960
       8    C3      20.859223   19.654892   21.360078 C.3        1 MOL1        -0.1409
       9    H6      21.860217   19.787569   20.926684 H          1 MOL1         0.0960
      10    H7      20.198747   20.308333   20.773648 H          1 MOL1         0.0960
      11    C4      20.927241   20.147166   22.831103 C.3        1 MOL1        -0.1409
      12    H8      21.334776   21.167409   22.811381 H          1 MOL1         0.0960
      13    H9      21.662837   19.553038   23.388222 H          1 MOL1         0.0960
      14    C5      19.570997   20.197639   23.584564 C.3        1 MOL1        -0.1409
      15    H10     19.579500   21.061663   24.263553 H          1 MOL1         0.0960
      16    H11     18.758777   20.394787   22.872288 H          1 MOL1         0.0960
      17    C6      19.248249   18.935187   24.423419 C.3        1 MOL1        -0.1450
      18    H12     19.275833   18.037048   23.796854 H          1 MOL1         0.0960
      19    H13     18.221645   19.018053   24.804087 H          1 MOL1         0.0960
      20    C7      20.207007   18.756862   25.615838 C.3        1 MOL1         0.0172
      21    H14     21.231010   18.633198   25.254870 H          1 MOL1         0.0934
      22    H15     20.171455   19.645312   26.252034 H          1 MOL1         0.0934
      23    N1      19.869041   17.554442   26.473379 N.4        1 MOL1        -0.5956
      24    H16     18.925995   17.621253   26.870045 H          1 MOL1         0.3624
      25    H17     20.517791   17.454612   27.261734 H          1 MOL1         0.3624
      26    H18     19.911027   16.680196   25.939557 H          1 MOL1         0.3624
@<TRIPOS>BOND
    1     1     2    1
    2     1     3    1
    3     1     4    1
    4     1     5    1
    5     5     6    1
    6     5     7    1
    7     5     8    1
    8     8     9    1
    9     8    10    1
   10     8    11    1
   11    11    12    1
   12    11    13    1
   13    11    14    1
   14    14    15    1
   15    14    16    1
   16    14    17    1
   17    17    18    1
   18    17    19    1
   19    17    20    1
   20    20    21    1
   21    20    22    1
   22    20    23    1
   23    23    24    1
   24    23    25    1
   25    23    26    1
@<TRIPOS>SUBSTRUCTURE
       1 MOL1            1 RESIDUE      1      MOL     
@<SCITEGIC>MOL_PROPERTY
VM2 Rank
SciTegic.value.IntegerValue
210

@<SCITEGIC>MOL_PROPERTY
Conf_Id
SciTegic.value.IntegerValue
160

@<SCITEGIC>MOL_PROPERTY
Probability
SciTegic.value.DoubleValue
0.00

@<SCITEGIC>MOL_PROPERTY
Sum Probability
SciTegic.value.DoubleValue
100.00

@<SCITEGIC>MOL_PROPERTY
Delta G
SciTegic.value.DoubleValue
6.899

@<SCITEGIC>MOL_PROPERTY
G
SciTegic.value.DoubleValue
55.160

@<SCITEGIC>MOL_PROPERTY
E
SciTegic.value.DoubleValue
21.890

@<SCITEGIC>MOL_PROPERTY
-TS
SciTegic.value.DoubleValue
33.270

@<SCITEGIC>MOL_PROPERTY
U+W
SciTegic.value.DoubleValue
0.428

@<SCITEGIC>MOL_PROPERTY
U
SciTegic.value.DoubleValue
54.562

@<SCITEGIC>MOL_PROPERTY
W
SciTegic.value.DoubleValue
-54.134

@<SCITEGIC>MOL_PROPERTY
W(PB)
SciTegic.value.DoubleValue
-56.363

@<SCITEGIC>MOL_PROPERTY
W(SA)
SciTegic.value.DoubleValue
2.229

@<SCITEGIC>MOL_PROPERTY
Valence
SciTegic.value.DoubleValue
8.177

@<SCITEGIC>MOL_PROPERTY
Coulomb
SciTegic.value.DoubleValue
45.812

@<SCITEGIC>MOL_PROPERTY
VdW
SciTegic.value.DoubleValue
0.572

@<SCITEGIC>MOL_PROPERTY
VdW6
SciTegic.value.DoubleValue
-9.083

@<SCITEGIC>MOL_PROPERTY
VdW12
SciTegic.value.DoubleValue
9.655

@<SCITEGIC>MOL_PROPERTY
Bond
SciTegic.value.DoubleValue
0.296

@<SCITEGIC>MOL_PROPERTY
Angle
SciTegic.value.DoubleValue
2.095

@<SCITEGIC>MOL_PROPERTY
Pdih
SciTegic.value.DoubleValue
5.787

@<SCITEGIC>MOL_PROPERTY
Idih
SciTegic.value.DoubleValue
0.000

@<SCITEGIC>MOL_PROPERTY
Tether
SciTegic.value.DoubleValue
0.000

@<TRIPOS>MOLECULE
guest-s14_vm2.mol2 : vm2 ligand conformer 211
          26          25           1
SMALL
USER_CHARGES
 
@<TRIPOS>ATOM
       1    C1      18.928375   19.572934   20.030818 C.3        1 MOL1        -0.2400
       2    H1      18.232508   20.225155   20.574508 H          1 MOL1         0.0971
       3    H2      19.276828   20.117357   19.143567 H          1 MOL1         0.0971
       4    H3      18.372836   18.690411   19.687683 H          1 MOL1         0.0971
       5    C2      20.120098   19.166576   20.923512 C.3        1 MOL1        -0.1385
       6    H4      20.674532   20.068747   21.213226 H          1 MOL1         0.0960
       7    H5      20.813339   18.543604   20.341249 H          1 MOL1         0.0960
       8    C3      19.653227   18.393609   22.179938 C.3        1 MOL1        -0.1409
       9    H6      18.955742   19.019302   22.749431 H          1 MOL1         0.0960
      10    H7      19.087072   17.509208   21.856297 H          1 MOL1         0.0960
      11    C4      20.829549   17.927197   23.077383 C.3        1 MOL1        -0.1409
      12    H8      21.586832   17.456894   22.434838 H          1 MOL1         0.0960
      13    H9      20.495707   17.130819   23.755602 H          1 MOL1         0.0960
      14    C5      21.502294   19.061731   23.895937 C.3        1 MOL1        -0.1409
      15    H10     22.579067   18.849036   23.947377 H          1 MOL1         0.0960
      16    H11     21.419180   20.021695   23.370813 H          1 MOL1         0.0960
      17    C6      20.991574   19.220466   25.352831 C.3        1 MOL1        -0.1450
      18    H12     21.589202   20.006565   25.833158 H          1 MOL1         0.0960
      19    H13     21.187318   18.304376   25.925839 H          1 MOL1         0.0960
      20    C7      19.506689   19.614188   25.485914 C.3        1 MOL1         0.0172
      21    H14     19.347012   20.081520   26.461402 H          1 MOL1         0.0934
      22    H15     19.244554   20.341984   24.713395 H          1 MOL1         0.0934
      23    N1      18.549193   18.442300   25.394667 N.4        1 MOL1        -0.5956
      24    H16     17.571310   18.742046   25.474648 H          1 MOL1         0.3624
      25    H17     18.714606   17.759198   26.141178 H          1 MOL1         0.3624
      26    H18     18.647432   17.948482   24.502310 H          1 MOL1         0.3624
@<TRIPOS>BOND
    1     1     2    1
    2     1     3    1
    3     1     4    1
    4     1     5    1
    5     5     6    1
    6     5     7    1
    7     5     8    1
    8     8     9    1
    9     8    10    1
   10     8    11    1
   11    11    12    1
   12    11    13    1
   13    11    14    1
   14    14    15    1
   15    14    16    1
   16    14    17    1
   17    17    18    1
   18    17    19    1
   19    17    20    1
   20    20    21    1
   21    20    22    1
   22    20    23    1
   23    23    24    1
   24    23    25    1
   25    23    26    1
@<TRIPOS>SUBSTRUCTURE
       1 MOL1            1 RESIDUE      1      MOL     
@<SCITEGIC>MOL_PROPERTY
VM2 Rank
SciTegic.value.IntegerValue
211

@<SCITEGIC>MOL_PROPERTY
Conf_Id
SciTegic.value.IntegerValue
1117

@<SCITEGIC>MOL_PROPERTY
Probability
SciTegic.value.DoubleValue
0.00

@<SCITEGIC>MOL_PROPERTY
Sum Probability
SciTegic.value.DoubleValue
100.00

@<SCITEGIC>MOL_PROPERTY
Delta G
SciTegic.value.DoubleValue
6.958

@<SCITEGIC>MOL_PROPERTY
G
SciTegic.value.DoubleValue
55.219

@<SCITEGIC>MOL_PROPERTY
E
SciTegic.value.DoubleValue
22.066

@<SCITEGIC>MOL_PROPERTY
-TS
SciTegic.value.DoubleValue
33.153

@<SCITEGIC>MOL_PROPERTY
U+W
SciTegic.value.DoubleValue
0.604

@<SCITEGIC>MOL_PROPERTY
U
SciTegic.value.DoubleValue
54.574

@<SCITEGIC>MOL_PROPERTY
W
SciTegic.value.DoubleValue
-53.970

@<SCITEGIC>MOL_PROPERTY
W(PB)
SciTegic.value.DoubleValue
-56.206

@<SCITEGIC>MOL_PROPERTY
W(SA)
SciTegic.value.DoubleValue
2.236

@<SCITEGIC>MOL_PROPERTY
Valence
SciTegic.value.DoubleValue
6.966

@<SCITEGIC>MOL_PROPERTY
Coulomb
SciTegic.value.DoubleValue
47.041

@<SCITEGIC>MOL_PROPERTY
VdW
SciTegic.value.DoubleValue
0.567

@<SCITEGIC>MOL_PROPERTY
VdW6
SciTegic.value.DoubleValue
-9.190

@<SCITEGIC>MOL_PROPERTY
VdW12
SciTegic.value.DoubleValue
9.756

@<SCITEGIC>MOL_PROPERTY
Bond
SciTegic.value.DoubleValue
0.281

@<SCITEGIC>MOL_PROPERTY
Angle
SciTegic.value.DoubleValue
1.617

@<SCITEGIC>MOL_PROPERTY
Pdih
SciTegic.value.DoubleValue
5.069

@<SCITEGIC>MOL_PROPERTY
Idih
SciTegic.value.DoubleValue
0.000

@<SCITEGIC>MOL_PROPERTY
Tether
SciTegic.value.DoubleValue
0.000

@<TRIPOS>MOLECULE
guest-s14_vm2.mol2 : vm2 ligand conformer 212
          26          25           1
SMALL
USER_CHARGES
 
@<TRIPOS>ATOM
       1    C1      20.130453   17.770605   20.096827 C.3        1 MOL1        -0.2400
       2    H1      21.175665   17.812260   19.763648 H          1 MOL1         0.0971
       3    H2      19.790312   16.730714   20.007672 H          1 MOL1         0.0971
       4    H3      19.528484   18.382069   19.411978 H          1 MOL1         0.0971
       5    C2      19.990275   18.266854   21.551618 C.3        1 MOL1        -0.1385
       6    H4      20.583433   17.622456   22.214068 H          1 MOL1         0.0960
       7    H5      18.939647   18.170281   21.852006 H          1 MOL1         0.0960
       8    C3      20.442776   19.737071   21.697691 C.3        1 MOL1        -0.1409
       9    H6      21.419437   19.856793   21.208609 H          1 MOL1         0.0960
      10    H7      19.747727   20.386497   21.147857 H          1 MOL1         0.0960
      11    C4      20.575860   20.242661   23.158080 C.3        1 MOL1        -0.1409
      12    H8      20.950363   21.274258   23.102481 H          1 MOL1         0.0960
      13    H9      21.360564   19.689613   23.683458 H          1 MOL1         0.0960
      14    C5      19.259284   20.273667   23.981918 C.3        1 MOL1        -0.1409
      15    H10     19.350227   21.068861   24.734873 H          1 MOL1         0.0960
      16    H11     18.432814   20.585213   23.328557 H          1 MOL1         0.0960
      17    C6      18.859942   18.970198   24.727844 C.3        1 MOL1        -0.1450
      18    H12     18.667327   18.145190   24.034809 H          1 MOL1         0.0960
      19    H13     17.899729   19.160587   25.225341 H          1 MOL1         0.0960
      20    C7      19.858784   18.523166   25.815374 C.3        1 MOL1         0.0172
      21    H14     20.313270   19.399096   26.285963 H          1 MOL1         0.0934
      22    H15     19.318737   17.966795   26.586270 H          1 MOL1         0.0934
      23    N1      20.963626   17.614778   25.311647 N.4        1 MOL1        -0.5956
      24    H16     21.607270   17.347774   26.064590 H          1 MOL1         0.3624
      25    H17     21.522847   18.063753   24.581164 H          1 MOL1         0.3624
      26    H18     20.589185   16.745599   24.917776 H          1 MOL1         0.3624
@<TRIPOS>BOND
    1     1     2    1
    2     1     3    1
    3     1     4    1
    4     1     5    1
    5     5     6    1
    6     5     7    1
    7     5     8    1
    8     8     9    1
    9     8    10    1
   10     8    11    1
   11    11    12    1
   12    11    13    1
   13    11    14    1
   14    14    15    1
   15    14    16    1
   16    14    17    1
   17    17    18    1
   18    17    19    1
   19    17    20    1
   20    20    21    1
   21    20    22    1
   22    20    23    1
   23    23    24    1
   24    23    25    1
   25    23    26    1
@<TRIPOS>SUBSTRUCTURE
       1 MOL1            1 RESIDUE      1      MOL     
@<SCITEGIC>MOL_PROPERTY
VM2 Rank
SciTegic.value.IntegerValue
212

@<SCITEGIC>MOL_PROPERTY
Conf_Id
SciTegic.value.IntegerValue
1375

@<SCITEGIC>MOL_PROPERTY
Probability
SciTegic.value.DoubleValue
0.00

@<SCITEGIC>MOL_PROPERTY
Sum Probability
SciTegic.value.DoubleValue
100.00

@<SCITEGIC>MOL_PROPERTY
Delta G
SciTegic.value.DoubleValue
7.021

@<SCITEGIC>MOL_PROPERTY
G
SciTegic.value.DoubleValue
55.282

@<SCITEGIC>MOL_PROPERTY
E
SciTegic.value.DoubleValue
22.651

@<SCITEGIC>MOL_PROPERTY
-TS
SciTegic.value.DoubleValue
32.630

@<SCITEGIC>MOL_PROPERTY
U+W
SciTegic.value.DoubleValue
1.190

@<SCITEGIC>MOL_PROPERTY
U
SciTegic.value.DoubleValue
55.380

@<SCITEGIC>MOL_PROPERTY
W
SciTegic.value.DoubleValue
-54.191

@<SCITEGIC>MOL_PROPERTY
W(PB)
SciTegic.value.DoubleValue
-56.404

@<SCITEGIC>MOL_PROPERTY
W(SA)
SciTegic.value.DoubleValue
2.214

@<SCITEGIC>MOL_PROPERTY
Valence
SciTegic.value.DoubleValue
7.389

@<SCITEGIC>MOL_PROPERTY
Coulomb
SciTegic.value.DoubleValue
47.631

@<SCITEGIC>MOL_PROPERTY
VdW
SciTegic.value.DoubleValue
0.360

@<SCITEGIC>MOL_PROPERTY
VdW6
SciTegic.value.DoubleValue
-9.044

@<SCITEGIC>MOL_PROPERTY
VdW12
SciTegic.value.DoubleValue
9.405

@<SCITEGIC>MOL_PROPERTY
Bond
SciTegic.value.DoubleValue
0.310

@<SCITEGIC>MOL_PROPERTY
Angle
SciTegic.value.DoubleValue
2.684

@<SCITEGIC>MOL_PROPERTY
Pdih
SciTegic.value.DoubleValue
4.395

@<SCITEGIC>MOL_PROPERTY
Idih
SciTegic.value.DoubleValue
0.000

@<SCITEGIC>MOL_PROPERTY
Tether
SciTegic.value.DoubleValue
0.000

@<TRIPOS>MOLECULE
guest-s14_vm2.mol2 : vm2 ligand conformer 213
          26          25           1
SMALL
USER_CHARGES
 
@<TRIPOS>ATOM
       1    C1      19.485945   18.414064   20.127154 C.3        1 MOL1        -0.2400
       2    H1      18.754896   17.709460   19.710012 H          1 MOL1         0.0971
       3    H2      19.568505   19.260137   19.432653 H          1 MOL1         0.0971
       4    H3      20.456121   17.903661   20.159663 H          1 MOL1         0.0971
       5    C2      19.040765   18.888364   21.529584 C.3        1 MOL1        -0.1385
       6    H4      18.948025   18.020527   22.193990 H          1 MOL1         0.0960
       7    H5      18.035093   19.323826   21.448235 H          1 MOL1         0.0960
       8    C3      19.993237   19.947492   22.141597 C.3        1 MOL1        -0.1409
       9    H6      20.169129   20.727184   21.387656 H          1 MOL1         0.0960
      10    H7      19.498292   20.460814   22.976469 H          1 MOL1         0.0960
      11    C4      21.361945   19.385735   22.610250 C.3        1 MOL1        -0.1409
      12    H8      22.131048   20.133243   22.371559 H          1 MOL1         0.0960
      13    H9      21.635438   18.493965   22.032411 H          1 MOL1         0.0960
      14    C5      21.472803   19.078317   24.127912 C.3        1 MOL1        -0.1409
      15    H10     22.513158   18.784771   24.324973 H          1 MOL1         0.0960
      16    H11     21.315936   19.996715   24.708172 H          1 MOL1         0.0960
      17    C6      20.556143   17.939950   24.648793 C.3        1 MOL1        -0.1450
      18    H12     21.007766   17.504775   25.550185 H          1 MOL1         0.0960
      19    H13     20.520487   17.128305   23.910389 H          1 MOL1         0.0960
      20    C7      19.120490   18.383201   24.999983 C.3        1 MOL1         0.0172
      21    H14     18.647236   18.850112   24.134339 H          1 MOL1         0.0934
      22    H15     18.530204   17.505259   25.276133 H          1 MOL1         0.0934
      23    N1      19.049673   19.361877   26.155728 N.4        1 MOL1        -0.5956
      24    H16     18.082441   19.624492   26.373973 H          1 MOL1         0.3624
      25    H17     19.557895   20.227753   25.952101 H          1 MOL1         0.3624
      26    H18     19.453061   18.968339   27.012076 H          1 MOL1         0.3624
@<TRIPOS>BOND
    1     1     2    1
    2     1     3    1
    3     1     4    1
    4     1     5    1
    5     5     6    1
    6     5     7    1
    7     5     8    1
    8     8     9    1
    9     8    10    1
   10     8    11    1
   11    11    12    1
   12    11    13    1
   13    11    14    1
   14    14    15    1
   15    14    16    1
   16    14    17    1
   17    17    18    1
   18    17    19    1
   19    17    20    1
   20    20    21    1
   21    20    22    1
   22    20    23    1
   23    23    24    1
   24    23    25    1
   25    23    26    1
@<TRIPOS>SUBSTRUCTURE
       1 MOL1            1 RESIDUE      1      MOL     
@<SCITEGIC>MOL_PROPERTY
VM2 Rank
SciTegic.value.IntegerValue
213

@<SCITEGIC>MOL_PROPERTY
Conf_Id
SciTegic.value.IntegerValue
1022

@<SCITEGIC>MOL_PROPERTY
Probability
SciTegic.value.DoubleValue
0.00

@<SCITEGIC>MOL_PROPERTY
Sum Probability
SciTegic.value.DoubleValue
100.00

@<SCITEGIC>MOL_PROPERTY
Delta G
SciTegic.value.DoubleValue
7.038

@<SCITEGIC>MOL_PROPERTY
G
SciTegic.value.DoubleValue
55.299

@<SCITEGIC>MOL_PROPERTY
E
SciTegic.value.DoubleValue
21.914

@<SCITEGIC>MOL_PROPERTY
-TS
SciTegic.value.DoubleValue
33.385

@<SCITEGIC>MOL_PROPERTY
U+W
SciTegic.value.DoubleValue
0.452

@<SCITEGIC>MOL_PROPERTY
U
SciTegic.value.DoubleValue
54.879

@<SCITEGIC>MOL_PROPERTY
W
SciTegic.value.DoubleValue
-54.427

@<SCITEGIC>MOL_PROPERTY
W(PB)
SciTegic.value.DoubleValue
-56.642

@<SCITEGIC>MOL_PROPERTY
W(SA)
SciTegic.value.DoubleValue
2.215

@<SCITEGIC>MOL_PROPERTY
Valence
SciTegic.value.DoubleValue
7.952

@<SCITEGIC>MOL_PROPERTY
Coulomb
SciTegic.value.DoubleValue
46.381

@<SCITEGIC>MOL_PROPERTY
VdW
SciTegic.value.DoubleValue
0.547

@<SCITEGIC>MOL_PROPERTY
VdW6
SciTegic.value.DoubleValue
-9.878

@<SCITEGIC>MOL_PROPERTY
VdW12
SciTegic.value.DoubleValue
10.425

@<SCITEGIC>MOL_PROPERTY
Bond
SciTegic.value.DoubleValue
0.318

@<SCITEGIC>MOL_PROPERTY
Angle
SciTegic.value.DoubleValue
2.064

@<SCITEGIC>MOL_PROPERTY
Pdih
SciTegic.value.DoubleValue
5.570

@<SCITEGIC>MOL_PROPERTY
Idih
SciTegic.value.DoubleValue
0.000

@<SCITEGIC>MOL_PROPERTY
Tether
SciTegic.value.DoubleValue
0.000

@<TRIPOS>MOLECULE
guest-s14_vm2.mol2 : vm2 ligand conformer 214
          26          25           1
SMALL
USER_CHARGES
 
@<TRIPOS>ATOM
       1    C1      18.347826   18.798450   21.530464 C.3        1 MOL1        -0.2400
       2    H1      18.341881   19.030874   22.600005 H          1 MOL1         0.0971
       3    H2      17.983057   19.683170   20.992670 H          1 MOL1         0.0971
       4    H3      17.629908   17.985789   21.360224 H          1 MOL1         0.0971
       5    C2      19.754038   18.392825   21.031228 C.3        1 MOL1        -0.1385
       6    H4      19.680251   18.183843   19.954771 H          1 MOL1         0.0960
       7    H5      20.075679   17.451122   21.495853 H          1 MOL1         0.0960
       8    C3      20.822783   19.494027   21.245753 C.3        1 MOL1        -0.1409
       9    H6      21.518519   19.455189   20.396134 H          1 MOL1         0.0960
      10    H7      20.357902   20.488291   21.196582 H          1 MOL1         0.0960
      11    C4      21.671679   19.366167   22.539739 C.3        1 MOL1        -0.1409
      12    H8      22.449999   20.140495   22.494228 H          1 MOL1         0.0960
      13    H9      22.212412   18.409820   22.542088 H          1 MOL1         0.0960
      14    C5      20.899505   19.551012   23.871238 C.3        1 MOL1        -0.1409
      15    H10     21.564507   20.052226   24.588293 H          1 MOL1         0.0960
      16    H11     20.053204   20.233054   23.719969 H          1 MOL1         0.0960
      17    C6      20.437972   18.214207   24.505872 C.3        1 MOL1        -0.1450
      18    H12     21.313912   17.572292   24.668198 H          1 MOL1         0.0960
      19    H13     19.776214   17.663775   23.828194 H          1 MOL1         0.0960
      20    C7      19.729498   18.414496   25.859295 C.3        1 MOL1         0.0172
      21    H14     19.517485   17.439118   26.305623 H          1 MOL1         0.0934
      22    H15     20.384925   18.965153   26.539412 H          1 MOL1         0.0934
      23    N1      18.417697   19.167815   25.757411 N.4        1 MOL1        -0.5956
      24    H16     17.972201   19.278832   26.674800 H          1 MOL1         0.3624
      25    H17     17.745410   18.681892   25.155408 H          1 MOL1         0.3624
      26    H18     18.549350   20.108241   25.372641 H          1 MOL1         0.3624
@<TRIPOS>BOND
    1     1     2    1
    2     1     3    1
    3     1     4    1
    4     1     5    1
    5     5     6    1
    6     5     7    1
    7     5     8    1
    8     8     9    1
    9     8    10    1
   10     8    11    1
   11    11    12    1
   12    11    13    1
   13    11    14    1
   14    14    15    1
   15    14    16    1
   16    14    17    1
   17    17    18    1
   18    17    19    1
   19    17    20    1
   20    20    21    1
   21    20    22    1
   22    20    23    1
   23    23    24    1
   24    23    25    1
   25    23    26    1
@<TRIPOS>SUBSTRUCTURE
       1 MOL1            1 RESIDUE      1      MOL     
@<SCITEGIC>MOL_PROPERTY
VM2 Rank
SciTegic.value.IntegerValue
214

@<SCITEGIC>MOL_PROPERTY
Conf_Id
SciTegic.value.IntegerValue
1310

@<SCITEGIC>MOL_PROPERTY
Probability
SciTegic.value.DoubleValue
0.00

@<SCITEGIC>MOL_PROPERTY
Sum Probability
SciTegic.value.DoubleValue
100.00

@<SCITEGIC>MOL_PROPERTY
Delta G
SciTegic.value.DoubleValue
7.104

@<SCITEGIC>MOL_PROPERTY
G
SciTegic.value.DoubleValue
55.365

@<SCITEGIC>MOL_PROPERTY
E
SciTegic.value.DoubleValue
21.953

@<SCITEGIC>MOL_PROPERTY
-TS
SciTegic.value.DoubleValue
33.412

@<SCITEGIC>MOL_PROPERTY
U+W
SciTegic.value.DoubleValue
0.491

@<SCITEGIC>MOL_PROPERTY
U
SciTegic.value.DoubleValue
54.898

@<SCITEGIC>MOL_PROPERTY
W
SciTegic.value.DoubleValue
-54.407

@<SCITEGIC>MOL_PROPERTY
W(PB)
SciTegic.value.DoubleValue
-56.569

@<SCITEGIC>MOL_PROPERTY
W(SA)
SciTegic.value.DoubleValue
2.162

@<SCITEGIC>MOL_PROPERTY
Valence
SciTegic.value.DoubleValue
7.854

@<SCITEGIC>MOL_PROPERTY
Coulomb
SciTegic.value.DoubleValue
46.637

@<SCITEGIC>MOL_PROPERTY
VdW
SciTegic.value.DoubleValue
0.407

@<SCITEGIC>MOL_PROPERTY
VdW6
SciTegic.value.DoubleValue
-9.363

@<SCITEGIC>MOL_PROPERTY
VdW12
SciTegic.value.DoubleValue
9.769

@<SCITEGIC>MOL_PROPERTY
Bond
SciTegic.value.DoubleValue
0.292

@<SCITEGIC>MOL_PROPERTY
Angle
SciTegic.value.DoubleValue
1.989

@<SCITEGIC>MOL_PROPERTY
Pdih
SciTegic.value.DoubleValue
5.574

@<SCITEGIC>MOL_PROPERTY
Idih
SciTegic.value.DoubleValue
0.000

@<SCITEGIC>MOL_PROPERTY
Tether
SciTegic.value.DoubleValue
0.000

@<TRIPOS>MOLECULE
guest-s14_vm2.mol2 : vm2 ligand conformer 215
          26          25           1
SMALL
USER_CHARGES
 
@<TRIPOS>ATOM
       1    C1      19.986366   19.038185   19.913458 C.3        1 MOL1        -0.2400
       2    H1      20.584047   18.185413   19.566328 H          1 MOL1         0.0971
       3    H2      18.971097   18.683606   20.130120 H          1 MOL1         0.0971
       4    H3      19.913829   19.756311   19.086475 H          1 MOL1         0.0971
       5    C2      20.630815   19.702722   21.151011 C.3        1 MOL1        -0.1385
       6    H4      19.994734   20.526381   21.499814 H          1 MOL1         0.0960
       7    H5      21.578268   20.167757   20.844743 H          1 MOL1         0.0960
       8    C3      20.924798   18.713366   22.309009 C.3        1 MOL1        -0.1409
       9    H6      21.648742   17.968025   21.951771 H          1 MOL1         0.0960
      10    H7      21.432429   19.264679   23.108532 H          1 MOL1         0.0960
      11    C4      19.686505   17.964280   22.877044 C.3        1 MOL1        -0.1409
      12    H8      20.013377   17.166319   23.556571 H          1 MOL1         0.0960
      13    H9      19.185538   17.438484   22.054197 H          1 MOL1         0.0960
      14    C5      18.647885   18.865234   23.598267 C.3        1 MOL1        -0.1409
      15    H10     18.637869   19.872932   23.165775 H          1 MOL1         0.0960
      16    H11     17.648789   18.454645   23.397125 H          1 MOL1         0.0960
      17    C6      18.804401   18.961360   25.139178 C.3        1 MOL1        -0.1450
      18    H12     18.661135   17.973773   25.597453 H          1 MOL1         0.0960
      19    H13     17.987016   19.588170   25.519697 H          1 MOL1         0.0960
      20    C7      20.131985   19.576222   25.625062 C.3        1 MOL1         0.0172
      21    H14     20.434528   20.385460   24.955140 H          1 MOL1         0.0934
      22    H15     19.986489   19.997481   26.623478 H          1 MOL1         0.0934
      23    N1      21.268245   18.577630   25.727971 N.4        1 MOL1        -0.5956
      24    H16     21.056254   17.830623   26.397523 H          1 MOL1         0.3624
      25    H17     22.138552   19.021561   26.040960 H          1 MOL1         0.3624
      26    H18     21.457959   18.132194   24.825099 H          1 MOL1         0.3624
@<TRIPOS>BOND
    1     1     2    1
    2     1     3    1
    3     1     4    1
    4     1     5    1
    5     5     6    1
    6     5     7    1
    7     5     8    1
    8     8     9    1
    9     8    10    1
   10     8    11    1
   11    11    12    1
   12    11    13    1
   13    11    14    1
   14    14    15    1
   15    14    16    1
   16    14    17    1
   17    17    18    1
   18    17    19    1
   19    17    20    1
   20    20    21    1
   21    20    22    1
   22    20    23    1
   23    23    24    1
   24    23    25    1
   25    23    26    1
@<TRIPOS>SUBSTRUCTURE
       1 MOL1            1 RESIDUE      1      MOL     
@<SCITEGIC>MOL_PROPERTY
VM2 Rank
SciTegic.value.IntegerValue
215

@<SCITEGIC>MOL_PROPERTY
Conf_Id
SciTegic.value.IntegerValue
248

@<SCITEGIC>MOL_PROPERTY
Probability
SciTegic.value.DoubleValue
0.00

@<SCITEGIC>MOL_PROPERTY
Sum Probability
SciTegic.value.DoubleValue
100.00

@<SCITEGIC>MOL_PROPERTY
Delta G
SciTegic.value.DoubleValue
7.350

@<SCITEGIC>MOL_PROPERTY
G
SciTegic.value.DoubleValue
55.611

@<SCITEGIC>MOL_PROPERTY
E
SciTegic.value.DoubleValue
22.531

@<SCITEGIC>MOL_PROPERTY
-TS
SciTegic.value.DoubleValue
33.080

@<SCITEGIC>MOL_PROPERTY
U+W
SciTegic.value.DoubleValue
1.069

@<SCITEGIC>MOL_PROPERTY
U
SciTegic.value.DoubleValue
55.284

@<SCITEGIC>MOL_PROPERTY
W
SciTegic.value.DoubleValue
-54.215

@<SCITEGIC>MOL_PROPERTY
W(PB)
SciTegic.value.DoubleValue
-56.410

@<SCITEGIC>MOL_PROPERTY
W(SA)
SciTegic.value.DoubleValue
2.195

@<SCITEGIC>MOL_PROPERTY
Valence
SciTegic.value.DoubleValue
7.530

@<SCITEGIC>MOL_PROPERTY
Coulomb
SciTegic.value.DoubleValue
47.065

@<SCITEGIC>MOL_PROPERTY
VdW
SciTegic.value.DoubleValue
0.689

@<SCITEGIC>MOL_PROPERTY
VdW6
SciTegic.value.DoubleValue
-9.872

@<SCITEGIC>MOL_PROPERTY
VdW12
SciTegic.value.DoubleValue
10.561

@<SCITEGIC>MOL_PROPERTY
Bond
SciTegic.value.DoubleValue
0.348

@<SCITEGIC>MOL_PROPERTY
Angle
SciTegic.value.DoubleValue
2.259

@<SCITEGIC>MOL_PROPERTY
Pdih
SciTegic.value.DoubleValue
4.923

@<SCITEGIC>MOL_PROPERTY
Idih
SciTegic.value.DoubleValue
0.000

@<SCITEGIC>MOL_PROPERTY
Tether
SciTegic.value.DoubleValue
0.000

@<TRIPOS>MOLECULE
guest-s14_vm2.mol2 : vm2 ligand conformer 216
          26          25           1
SMALL
USER_CHARGES
 
@<TRIPOS>ATOM
       1    C1      21.372938   19.177797   20.284410 C.3        1 MOL1        -0.2400
       2    H1      21.134813   20.236743   20.119547 H          1 MOL1         0.0971
       3    H2      22.464326   19.067450   20.242825 H          1 MOL1         0.0971
       4    H3      20.944359   18.598131   19.456434 H          1 MOL1         0.0971
       5    C2      20.827185   18.692101   21.643814 C.3        1 MOL1        -0.1385
       6    H4      21.311136   19.265836   22.441071 H          1 MOL1         0.0960
       7    H5      21.107984   17.639764   21.788696 H          1 MOL1         0.0960
       8    C3      19.289132   18.838122   21.722901 C.3        1 MOL1        -0.1409
       9    H6      18.999047   19.887735   21.577359 H          1 MOL1         0.0960
      10    H7      18.854411   18.286461   20.877745 H          1 MOL1         0.0960
      11    C4      18.661018   18.286859   23.030534 C.3        1 MOL1        -0.1409
      12    H8      19.227341   17.428205   23.408053 H          1 MOL1         0.0960
      13    H9      17.674635   17.878369   22.770067 H          1 MOL1         0.0960
      14    C5      18.423873   19.344495   24.142438 C.3        1 MOL1        -0.1409
      15    H10     17.802645   20.148902   23.724993 H          1 MOL1         0.0960
      16    H11     17.814990   18.888096   24.935141 H          1 MOL1         0.0960
      17    C6      19.677497   19.983931   24.794643 C.3        1 MOL1        -0.1450
      18    H12     19.331343   20.820473   25.416040 H          1 MOL1         0.0960
      19    H13     20.331865   20.437061   24.041863 H          1 MOL1         0.0960
      20    C7      20.470416   19.035747   25.719348 C.3        1 MOL1         0.0172
      21    H14     21.117547   19.631464   26.368802 H          1 MOL1         0.0934
      22    H15     19.776334   18.479353   26.354870 H          1 MOL1         0.0934
      23    N1      21.358941   18.039948   25.002912 N.4        1 MOL1        -0.5956
      24    H16     21.841963   17.420533   25.662923 H          1 MOL1         0.3624
      25    H17     22.082046   18.508206   24.448102 H          1 MOL1         0.3624
      26    H18     20.820474   17.445310   24.367203 H          1 MOL1         0.3624
@<TRIPOS>BOND
    1     1     2    1
    2     1     3    1
    3     1     4    1
    4     1     5    1
    5     5     6    1
    6     5     7    1
    7     5     8    1
    8     8     9    1
    9     8    10    1
   10     8    11    1
   11    11    12    1
   12    11    13    1
   13    11    14    1
   14    14    15    1
   15    14    16    1
   16    14    17    1
   17    17    18    1
   18    17    19    1
   19    17    20    1
   20    20    21    1
   21    20    22    1
   22    20    23    1
   23    23    24    1
   24    23    25    1
   25    23    26    1
@<TRIPOS>SUBSTRUCTURE
       1 MOL1            1 RESIDUE      1      MOL     
@<SCITEGIC>MOL_PROPERTY
VM2 Rank
SciTegic.value.IntegerValue
216

@<SCITEGIC>MOL_PROPERTY
Conf_Id
SciTegic.value.IntegerValue
527

@<SCITEGIC>MOL_PROPERTY
Probability
SciTegic.value.DoubleValue
0.00

@<SCITEGIC>MOL_PROPERTY
Sum Probability
SciTegic.value.DoubleValue
100.00

@<SCITEGIC>MOL_PROPERTY
Delta G
SciTegic.value.DoubleValue
7.697

@<SCITEGIC>MOL_PROPERTY
G
SciTegic.value.DoubleValue
55.958

@<SCITEGIC>MOL_PROPERTY
E
SciTegic.value.DoubleValue
22.962

@<SCITEGIC>MOL_PROPERTY
-TS
SciTegic.value.DoubleValue
32.996

@<SCITEGIC>MOL_PROPERTY
U+W
SciTegic.value.DoubleValue
1.500

@<SCITEGIC>MOL_PROPERTY
U
SciTegic.value.DoubleValue
55.487

@<SCITEGIC>MOL_PROPERTY
W
SciTegic.value.DoubleValue
-53.987

@<SCITEGIC>MOL_PROPERTY
W(PB)
SciTegic.value.DoubleValue
-56.176

@<SCITEGIC>MOL_PROPERTY
W(SA)
SciTegic.value.DoubleValue
2.189

@<SCITEGIC>MOL_PROPERTY
Valence
SciTegic.value.DoubleValue
7.292

@<SCITEGIC>MOL_PROPERTY
Coulomb
SciTegic.value.DoubleValue
48.136

@<SCITEGIC>MOL_PROPERTY
VdW
SciTegic.value.DoubleValue
0.060

@<SCITEGIC>MOL_PROPERTY
VdW6
SciTegic.value.DoubleValue
-9.397

@<SCITEGIC>MOL_PROPERTY
VdW12
SciTegic.value.DoubleValue
9.457

@<SCITEGIC>MOL_PROPERTY
Bond
SciTegic.value.DoubleValue
0.292

@<SCITEGIC>MOL_PROPERTY
Angle
SciTegic.value.DoubleValue
2.593

@<SCITEGIC>MOL_PROPERTY
Pdih
SciTegic.value.DoubleValue
4.408

@<SCITEGIC>MOL_PROPERTY
Idih
SciTegic.value.DoubleValue
0.000

@<SCITEGIC>MOL_PROPERTY
Tether
SciTegic.value.DoubleValue
0.000

@<TRIPOS>MOLECULE
guest-s14_vm2.mol2 : vm2 ligand conformer 217
          26          25           1
SMALL
USER_CHARGES
 
@<TRIPOS>ATOM
       1    C1      18.860187   17.853483   20.930733 C.3        1 MOL1        -0.2400
       2    H1      17.956903   18.029104   21.528543 H          1 MOL1         0.0971
       3    H2      18.538383   17.478165   19.950534 H          1 MOL1         0.0971
       4    H3      19.447400   17.058886   21.406850 H          1 MOL1         0.0971
       5    C2      19.680499   19.152916   20.761999 C.3        1 MOL1        -0.1385
       6    H4      19.073370   19.881627   20.206707 H          1 MOL1         0.0960
       7    H5      20.565554   18.955445   20.141016 H          1 MOL1         0.0960
       8    C3      20.114425   19.788413   22.104204 C.3        1 MOL1        -0.1409
       9    H6      20.524442   20.786713   21.897189 H          1 MOL1         0.0960
      10    H7      19.232474   19.958211   22.732648 H          1 MOL1         0.0960
      11    C4      21.192958   18.964058   22.854682 C.3        1 MOL1        -0.1409
      12    H8      22.098743   18.951067   22.232654 H          1 MOL1         0.0960
      13    H9      20.898832   17.913577   22.966919 H          1 MOL1         0.0960
      14    C5      21.556852   19.559363   24.239004 C.3        1 MOL1        -0.1409
      15    H10     22.634599   19.416237   24.398542 H          1 MOL1         0.0960
      16    H11     21.402615   20.647303   24.236340 H          1 MOL1         0.0960
      17    C6      20.820199   18.923367   25.448403 C.3        1 MOL1        -0.1450
      18    H12     21.200900   19.399748   26.361614 H          1 MOL1         0.0960
      19    H13     21.082764   17.860551   25.534255 H          1 MOL1         0.0960
      20    C7      19.286282   19.081487   25.440752 C.3        1 MOL1         0.0172
      21    H14     18.907519   18.944763   26.457280 H          1 MOL1         0.0934
      22    H15     19.018403   20.088729   25.110852 H          1 MOL1         0.0934
      23    N1      18.569597   18.075913   24.561225 N.4        1 MOL1        -0.5956
      24    H16     17.553478   18.218376   24.571305 H          1 MOL1         0.3624
      25    H17     18.740490   17.113465   24.871360 H          1 MOL1         0.3624
      26    H18     18.884553   18.146935   23.587295 H          1 MOL1         0.3624
@<TRIPOS>BOND
    1     1     2    1
    2     1     3    1
    3     1     4    1
    4     1     5    1
    5     5     6    1
    6     5     7    1
    7     5     8    1
    8     8     9    1
    9     8    10    1
   10     8    11    1
   11    11    12    1
   12    11    13    1
   13    11    14    1
   14    14    15    1
   15    14    16    1
   16    14    17    1
   17    17    18    1
   18    17    19    1
   19    17    20    1
   20    20    21    1
   21    20    22    1
   22    20    23    1
   23    23    24    1
   24    23    25    1
   25    23    26    1
@<TRIPOS>SUBSTRUCTURE
       1 MOL1            1 RESIDUE      1      MOL     
@<SCITEGIC>MOL_PROPERTY
VM2 Rank
SciTegic.value.IntegerValue
217

@<SCITEGIC>MOL_PROPERTY
Conf_Id
SciTegic.value.IntegerValue
822

@<SCITEGIC>MOL_PROPERTY
Probability
SciTegic.value.DoubleValue
0.00

@<SCITEGIC>MOL_PROPERTY
Sum Probability
SciTegic.value.DoubleValue
100.00

@<SCITEGIC>MOL_PROPERTY
Delta G
SciTegic.value.DoubleValue
8.484

@<SCITEGIC>MOL_PROPERTY
G
SciTegic.value.DoubleValue
56.745

@<SCITEGIC>MOL_PROPERTY
E
SciTegic.value.DoubleValue
23.153

@<SCITEGIC>MOL_PROPERTY
-TS
SciTegic.value.DoubleValue
33.591

@<SCITEGIC>MOL_PROPERTY
U+W
SciTegic.value.DoubleValue
1.692

@<SCITEGIC>MOL_PROPERTY
U
SciTegic.value.DoubleValue
54.447

@<SCITEGIC>MOL_PROPERTY
W
SciTegic.value.DoubleValue
-52.755

@<SCITEGIC>MOL_PROPERTY
W(PB)
SciTegic.value.DoubleValue
-54.933

@<SCITEGIC>MOL_PROPERTY
W(SA)
SciTegic.value.DoubleValue
2.178

@<SCITEGIC>MOL_PROPERTY
Valence
SciTegic.value.DoubleValue
6.776

@<SCITEGIC>MOL_PROPERTY
Coulomb
SciTegic.value.DoubleValue
47.396

@<SCITEGIC>MOL_PROPERTY
VdW
SciTegic.value.DoubleValue
0.275

@<SCITEGIC>MOL_PROPERTY
VdW6
SciTegic.value.DoubleValue
-10.114

@<SCITEGIC>MOL_PROPERTY
VdW12
SciTegic.value.DoubleValue
10.389

@<SCITEGIC>MOL_PROPERTY
Bond
SciTegic.value.DoubleValue
0.270

@<SCITEGIC>MOL_PROPERTY
Angle
SciTegic.value.DoubleValue
1.774

@<SCITEGIC>MOL_PROPERTY
Pdih
SciTegic.value.DoubleValue
4.732

@<SCITEGIC>MOL_PROPERTY
Idih
SciTegic.value.DoubleValue
0.000

@<SCITEGIC>MOL_PROPERTY
Tether
SciTegic.value.DoubleValue
0.000

@<TRIPOS>MOLECULE
guest-s14_vm2.mol2 : vm2 ligand conformer 218
          26          25           1
SMALL
USER_CHARGES
 
@<TRIPOS>ATOM
       1    C1      19.471296   19.728237   20.455400 C.3        1 MOL1        -0.2400
       2    H1      19.278752   19.854018   19.382114 H          1 MOL1         0.0971
       3    H2      18.611845   20.139108   21.000649 H          1 MOL1         0.0971
       4    H3      20.358139   20.324746   20.703118 H          1 MOL1         0.0971
       5    C2      19.683725   18.236454   20.794913 C.3        1 MOL1        -0.1385
       6    H4      20.561581   17.859433   20.251785 H          1 MOL1         0.0960
       7    H5      18.824449   17.663557   20.419151 H          1 MOL1         0.0960
       8    C3      19.845738   17.949363   22.309284 C.3        1 MOL1        -0.1409
       9    H6      18.933403   18.255733   22.837069 H          1 MOL1         0.0960
      10    H7      19.919711   16.860076   22.432432 H          1 MOL1         0.0960
      11    C4      21.101268   18.602072   22.950342 C.3        1 MOL1        -0.1409
      12    H8      21.875762   18.711001   22.178558 H          1 MOL1         0.0960
      13    H9      21.538039   17.923980   23.695622 H          1 MOL1         0.0960
      14    C5      20.840246   19.984427   23.606866 C.3        1 MOL1        -0.1409
      15    H10     21.735917   20.603530   23.459632 H          1 MOL1         0.0960
      16    H11     20.029132   20.511769   23.089066 H          1 MOL1         0.0960
      17    C6      20.544841   19.948195   25.130091 C.3        1 MOL1        -0.1450
      18    H12     20.473367   20.985791   25.482353 H          1 MOL1         0.0960
      19    H13     21.391964   19.506370   25.671395 H          1 MOL1         0.0960
      20    C7      19.238388   19.230253   25.524541 C.3        1 MOL1         0.0172
      21    H14     18.937330   19.557998   26.523249 H          1 MOL1         0.0934
      22    H15     18.442318   19.497952   24.824737 H          1 MOL1         0.0934
      23    N1      19.355498   17.720000   25.569563 N.4        1 MOL1        -0.5956
      24    H16     18.464656   17.275453   25.817146 H          1 MOL1         0.3624
      25    H17     20.046086   17.414311   26.263033 H          1 MOL1         0.3624
      26    H18     19.646651   17.343725   24.662146 H          1 MOL1         0.3624
@<TRIPOS>BOND
    1     1     2    1
    2     1     3    1
    3     1     4    1
    4     1     5    1
    5     5     6    1
    6     5     7    1
    7     5     8    1
    8     8     9    1
    9     8    10    1
   10     8    11    1
   11    11    12    1
   12    11    13    1
   13    11    14    1
   14    14    15    1
   15    14    16    1
   16    14    17    1
   17    17    18    1
   18    17    19    1
   19    17    20    1
   20    20    21    1
   21    20    22    1
   22    20    23    1
   23    23    24    1
   24    23    25    1
   25    23    26    1
@<TRIPOS>SUBSTRUCTURE
       1 MOL1            1 RESIDUE      1      MOL     
@<SCITEGIC>MOL_PROPERTY
VM2 Rank
SciTegic.value.IntegerValue
218

@<SCITEGIC>MOL_PROPERTY
Conf_Id
SciTegic.value.IntegerValue
268

@<SCITEGIC>MOL_PROPERTY
Probability
SciTegic.value.DoubleValue
0.00

@<SCITEGIC>MOL_PROPERTY
Sum Probability
SciTegic.value.DoubleValue
100.00

@<SCITEGIC>MOL_PROPERTY
Delta G
SciTegic.value.DoubleValue
9.130

@<SCITEGIC>MOL_PROPERTY
G
SciTegic.value.DoubleValue
57.391

@<SCITEGIC>MOL_PROPERTY
E
SciTegic.value.DoubleValue
23.863

@<SCITEGIC>MOL_PROPERTY
-TS
SciTegic.value.DoubleValue
33.527

@<SCITEGIC>MOL_PROPERTY
U+W
SciTegic.value.DoubleValue
2.402

@<SCITEGIC>MOL_PROPERTY
U
SciTegic.value.DoubleValue
56.286

@<SCITEGIC>MOL_PROPERTY
W
SciTegic.value.DoubleValue
-53.884

@<SCITEGIC>MOL_PROPERTY
W(PB)
SciTegic.value.DoubleValue
-56.064

@<SCITEGIC>MOL_PROPERTY
W(SA)
SciTegic.value.DoubleValue
2.180

@<SCITEGIC>MOL_PROPERTY
Valence
SciTegic.value.DoubleValue
8.641

@<SCITEGIC>MOL_PROPERTY
Coulomb
SciTegic.value.DoubleValue
47.132

@<SCITEGIC>MOL_PROPERTY
VdW
SciTegic.value.DoubleValue
0.514

@<SCITEGIC>MOL_PROPERTY
VdW6
SciTegic.value.DoubleValue
-10.329

@<SCITEGIC>MOL_PROPERTY
VdW12
SciTegic.value.DoubleValue
10.843

@<SCITEGIC>MOL_PROPERTY
Bond
SciTegic.value.DoubleValue
0.322

@<SCITEGIC>MOL_PROPERTY
Angle
SciTegic.value.DoubleValue
1.900

@<SCITEGIC>MOL_PROPERTY
Pdih
SciTegic.value.DoubleValue
6.418

@<SCITEGIC>MOL_PROPERTY
Idih
SciTegic.value.DoubleValue
0.000

@<SCITEGIC>MOL_PROPERTY
Tether
SciTegic.value.DoubleValue
0.000

@<TRIPOS>MOLECULE
guest-s14_vm2.mol2 : vm2 ligand conformer 219
          26          25           1
SMALL
USER_CHARGES
 
@<TRIPOS>ATOM
       1    C1      21.675224   19.142236   21.084808 C.3        1 MOL1        -0.2400
       2    H1      22.607355   18.579618   20.944559 H          1 MOL1         0.0971
       3    H2      21.444079   19.643434   20.135846 H          1 MOL1         0.0971
       4    H3      21.865392   19.916043   21.836739 H          1 MOL1         0.0971
       5    C2      20.527473   18.192196   21.498979 C.3        1 MOL1        -0.1385
       6    H4      20.789781   17.664531   22.421687 H          1 MOL1         0.0960
       7    H5      20.431595   17.413448   20.729451 H          1 MOL1         0.0960
       8    C3      19.159582   18.906258   21.640971 C.3        1 MOL1        -0.1409
       9    H6      18.961943   19.446544   20.704782 H          1 MOL1         0.0960
      10    H7      18.362361   18.154123   21.716104 H          1 MOL1         0.0960
      11    C4      19.039192   19.906914   22.823779 C.3        1 MOL1        -0.1409
      12    H8      18.384917   20.724622   22.490998 H          1 MOL1         0.0960
      13    H9      19.995243   20.390850   23.044886 H          1 MOL1         0.0960
      14    C5      18.397104   19.319839   24.109864 C.3        1 MOL1        -0.1409
      15    H10     18.198729   20.142758   24.810474 H          1 MOL1         0.0960
      16    H11     17.409313   18.916309   23.847762 H          1 MOL1         0.0960
      17    C6      19.192075   18.217664   24.857655 C.3        1 MOL1        -0.1450
      18    H12     19.446000   17.386658   24.189956 H          1 MOL1         0.0960
      19    H13     18.522481   17.787208   25.614029 H          1 MOL1         0.0960
      20    C7      20.442589   18.730219   25.603009 C.3        1 MOL1         0.0172
      21    H14     20.200726   19.658423   26.127548 H          1 MOL1         0.0934
      22    H15     20.742041   17.989580   26.349483 H          1 MOL1         0.0934
      23    N1      21.647763   18.983675   24.721935 N.4        1 MOL1        -0.5956
      24    H16     22.435381   19.365971   25.256958 H          1 MOL1         0.3624
      25    H17     21.430976   19.649516   23.975318 H          1 MOL1         0.3624
      26    H18     21.977944   18.122000   24.276002 H          1 MOL1         0.3624
@<TRIPOS>BOND
    1     1     2    1
    2     1     3    1
    3     1     4    1
    4     1     5    1
    5     5     6    1
    6     5     7    1
    7     5     8    1
    8     8     9    1
    9     8    10    1
   10     8    11    1
   11    11    12    1
   12    11    13    1
   13    11    14    1
   14    14    15    1
   15    14    16    1
   16    14    17    1
   17    17    18    1
   18    17    19    1
   19    17    20    1
   20    20    21    1
   21    20    22    1
   22    20    23    1
   23    23    24    1
   24    23    25    1
   25    23    26    1
@<TRIPOS>SUBSTRUCTURE
       1 MOL1            1 RESIDUE      1      MOL     
@<SCITEGIC>MOL_PROPERTY
VM2 Rank
SciTegic.value.IntegerValue
219

@<SCITEGIC>MOL_PROPERTY
Conf_Id
SciTegic.value.IntegerValue
265

@<SCITEGIC>MOL_PROPERTY
Probability
SciTegic.value.DoubleValue
0.00

@<SCITEGIC>MOL_PROPERTY
Sum Probability
SciTegic.value.DoubleValue
100.00

@<SCITEGIC>MOL_PROPERTY
Delta G
SciTegic.value.DoubleValue
9.165

@<SCITEGIC>MOL_PROPERTY
G
SciTegic.value.DoubleValue
57.426

@<SCITEGIC>MOL_PROPERTY
E
SciTegic.value.DoubleValue
24.051

@<SCITEGIC>MOL_PROPERTY
-TS
SciTegic.value.DoubleValue
33.376

@<SCITEGIC>MOL_PROPERTY
U+W
SciTegic.value.DoubleValue
2.589

@<SCITEGIC>MOL_PROPERTY
U
SciTegic.value.DoubleValue
56.051

@<SCITEGIC>MOL_PROPERTY
W
SciTegic.value.DoubleValue
-53.462

@<SCITEGIC>MOL_PROPERTY
W(PB)
SciTegic.value.DoubleValue
-55.627

@<SCITEGIC>MOL_PROPERTY
W(SA)
SciTegic.value.DoubleValue
2.165

@<SCITEGIC>MOL_PROPERTY
Valence
SciTegic.value.DoubleValue
8.064

@<SCITEGIC>MOL_PROPERTY
Coulomb
SciTegic.value.DoubleValue
48.004

@<SCITEGIC>MOL_PROPERTY
VdW
SciTegic.value.DoubleValue
-0.017

@<SCITEGIC>MOL_PROPERTY
VdW6
SciTegic.value.DoubleValue
-10.370

@<SCITEGIC>MOL_PROPERTY
VdW12
SciTegic.value.DoubleValue
10.353

@<SCITEGIC>MOL_PROPERTY
Bond
SciTegic.value.DoubleValue
0.341

@<SCITEGIC>MOL_PROPERTY
Angle
SciTegic.value.DoubleValue
2.906

@<SCITEGIC>MOL_PROPERTY
Pdih
SciTegic.value.DoubleValue
4.817

@<SCITEGIC>MOL_PROPERTY
Idih
SciTegic.value.DoubleValue
0.000

@<SCITEGIC>MOL_PROPERTY
Tether
SciTegic.value.DoubleValue
0.000

