VeraChem MOL file


 26 25  0  0  0  0  0  0  0  0999 V2000     
   19.9052   19.3107   18.8162 C   0  0  0  0  0  0  0  0  0  0  0  0
   20.2945   20.3369   18.7943 H   0  0  0  0  0  0  0  0  0  0  0  0
   20.2787   18.7895   17.9252 H   0  0  0  0  0  0  0  0  0  0  0  0
   18.8108   19.3585   18.7447 H   0  0  0  0  0  0  0  0  0  0  0  0
   20.3457   18.5776   20.1010 C   0  0  0  0  0  0  0  0  0  0  0  0
   21.4427   18.5157   20.1275 H   0  0  0  0  0  0  0  0  0  0  0  0
   19.9704   17.5449   20.0784 H   0  0  0  0  0  0  0  0  0  0  0  0
   19.8327   19.2912   21.3714 C   0  0  0  0  0  0  0  0  0  0  0  0
   20.2083   20.3237   21.3883 H   0  0  0  0  0  0  0  0  0  0  0  0
   18.7360   19.3526   21.3392 H   0  0  0  0  0  0  0  0  0  0  0  0
   20.2719   18.5602   22.6602 C   0  0  0  0  0  0  0  0  0  0  0  0
   21.3686   18.4989   22.6913 H   0  0  0  0  0  0  0  0  0  0  0  0
   19.8962   17.5277   22.6422 H   0  0  0  0  0  0  0  0  0  0  0  0
   19.7583   19.2745   23.9308 C   0  0  0  0  0  0  0  0  0  0  0  0
   20.1340   20.3071   23.9492 H   0  0  0  0  0  0  0  0  0  0  0  0
   18.6614   19.3359   23.9000 H   0  0  0  0  0  0  0  0  0  0  0  0
   20.1968   18.5443   25.2193 C   0  0  0  0  0  0  0  0  0  0  0  0
   21.2928   18.4855   25.2564 H   0  0  0  0  0  0  0  0  0  0  0  0
   19.8188   17.5133   25.2071 H   0  0  0  0  0  0  0  0  0  0  0  0
   19.6802   19.2637   26.4777 C   0  0  0  0  0  0  0  0  0  0  0  0
   20.0676   20.2859   26.5026 H   0  0  0  0  0  0  0  0  0  0  0  0
   18.5881   19.3102   26.4531 H   0  0  0  0  0  0  0  0  0  0  0  0
   20.0901   18.5768   27.7644 N   0  3  0  0  0  0  0  0  0  0  0  0
   19.7359   19.0720   28.5901 H   0  0  0  0  0  0  0  0  0  0  0  0
   21.1095   18.5250   27.8622 H   0  0  0  0  0  0  0  0  0  0  0  0
   19.7328   17.6172   27.8161 H   0  0  0  0  0  0  0  0  0  0  0  0
  1  2  1  0  0  0  0
  1  3  1  0  0  0  0
  1  4  1  0  0  0  0
  1  5  1  0  0  0  0
  5  6  1  0  0  0  0
  5  7  1  0  0  0  0
  5  8  1  0  0  0  0
  8  9  1  0  0  0  0
  8 10  1  0  0  0  0
  8 11  1  0  0  0  0
 11 12  1  0  0  0  0
 11 13  1  0  0  0  0
 11 14  1  0  0  0  0
 14 15  1  0  0  0  0
 14 16  1  0  0  0  0
 14 17  1  0  0  0  0
 17 18  1  0  0  0  0
 17 19  1  0  0  0  0
 17 20  1  0  0  0  0
 20 21  1  0  0  0  0
 20 22  1  0  0  0  0
 20 23  1  0  0  0  0
 23 24  1  0  0  0  0
 23 25  1  0  0  0  0
 23 26  1  0  0  0  0
M  END
> <VM2 Rank>
1

> <Conf_Id>
316

> <Probability>
7.28

> <Sum Probability>
7.28

> <Delta G>
0.000

> <G>
48.261

> <E>
15.909

> <-TS>
32.352

> <U+W>
-5.553

> <U>
47.192

> <W>
-52.745

> <W(PB)>
-55.136

> <W(SA)>
2.391

> <Valence>
2.156

> <Coulomb>
44.449

> <VdW>
0.587

> <VdW6>
-5.761

> <VdW12>
6.348

> <Bond>
0.129

> <Angle>
0.393

> <Pdih>
1.634

> <Idih>
0.000

> <Tether>
0.000

$$$$
VeraChem MOL file


 26 25  0  0  0  0  0  0  0  0999 V2000     
   20.1408   19.6499   19.0008 C   0  0  0  0  0  0  0  0  0  0  0  0
   19.1347   20.0853   18.9420 H   0  0  0  0  0  0  0  0  0  0  0  0
   20.8621   20.4696   19.1149 H   0  0  0  0  0  0  0  0  0  0  0  0
   20.3477   19.1494   18.0460 H   0  0  0  0  0  0  0  0  0  0  0  0
   20.2456   18.6516   20.1733 C   0  0  0  0  0  0  0  0  0  0  0  0
   21.2510   18.2079   20.1855 H   0  0  0  0  0  0  0  0  0  0  0  0
   19.5370   17.8267   20.0140 H   0  0  0  0  0  0  0  0  0  0  0  0
   19.9586   19.3310   21.5306 C   0  0  0  0  0  0  0  0  0  0  0  0
   20.6678   20.1562   21.6841 H   0  0  0  0  0  0  0  0  0  0  0  0
   18.9536   19.7749   21.5127 H   0  0  0  0  0  0  0  0  0  0  0  0
   20.0625   18.3343   22.7072 C   0  0  0  0  0  0  0  0  0  0  0  0
   21.0678   17.8909   22.7245 H   0  0  0  0  0  0  0  0  0  0  0  0
   19.3536   17.5091   22.5519 H   0  0  0  0  0  0  0  0  0  0  0  0
   19.7748   19.0142   24.0649 C   0  0  0  0  0  0  0  0  0  0  0  0
   20.4826   19.8408   24.2124 H   0  0  0  0  0  0  0  0  0  0  0  0
   18.7683   19.4551   24.0484 H   0  0  0  0  0  0  0  0  0  0  0  0
   19.8801   18.0151   25.2413 C   0  0  0  0  0  0  0  0  0  0  0  0
   20.8922   17.5914   25.2861 H   0  0  0  0  0  0  0  0  0  0  0  0
   19.1959   17.1741   25.0665 H   0  0  0  0  0  0  0  0  0  0  0  0
   19.5295   18.6544   26.5987 C   0  0  0  0  0  0  0  0  0  0  0  0
   18.5244   19.0826   26.5554 H   0  0  0  0  0  0  0  0  0  0  0  0
   19.5390   17.8848   27.3753 H   0  0  0  0  0  0  0  0  0  0  0  0
   20.4891   19.7484   27.0243 N   0  3  0  0  0  0  0  0  0  0  0  0
   20.2355   20.1437   27.9363 H   0  0  0  0  0  0  0  0  0  0  0  0
   20.5021   20.5238   26.3545 H   0  0  0  0  0  0  0  0  0  0  0  0
   21.4504   19.4014   27.1054 H   0  0  0  0  0  0  0  0  0  0  0  0
  1  2  1  0  0  0  0
  1  3  1  0  0  0  0
  1  4  1  0  0  0  0
  1  5  1  0  0  0  0
  5  6  1  0  0  0  0
  5  7  1  0  0  0  0
  5  8  1  0  0  0  0
  8  9  1  0  0  0  0
  8 10  1  0  0  0  0
  8 11  1  0  0  0  0
 11 12  1  0  0  0  0
 11 13  1  0  0  0  0
 11 14  1  0  0  0  0
 14 15  1  0  0  0  0
 14 16  1  0  0  0  0
 14 17  1  0  0  0  0
 17 18  1  0  0  0  0
 17 19  1  0  0  0  0
 17 20  1  0  0  0  0
 20 21  1  0  0  0  0
 20 22  1  0  0  0  0
 20 23  1  0  0  0  0
 23 24  1  0  0  0  0
 23 25  1  0  0  0  0
 23 26  1  0  0  0  0
M  END
> <VM2 Rank>
2

> <Conf_Id>
307

> <Probability>
4.80

> <Sum Probability>
12.09

> <Delta G>
0.248

> <G>
48.509

> <E>
16.054

> <-TS>
32.455

> <U+W>
-5.408

> <U>
47.845

> <W>
-53.253

> <W(PB)>
-55.604

> <W(SA)>
2.351

> <Valence>
2.258

> <Coulomb>
44.894

> <VdW>
0.694

> <VdW6>
-6.285

> <VdW12>
6.979

> <Bond>
0.149

> <Angle>
0.434

> <Pdih>
1.675

> <Idih>
0.000

> <Tether>
0.000

$$$$
VeraChem MOL file


 26 25  0  0  0  0  0  0  0  0999 V2000     
   19.4926   19.2223   18.9792 C   0  0  0  0  0  0  0  0  0  0  0  0
   19.4900   20.3199   18.9540 H   0  0  0  0  0  0  0  0  0  0  0  0
   19.9156   18.8646   18.0315 H   0  0  0  0  0  0  0  0  0  0  0  0
   18.4512   18.8791   19.0343 H   0  0  0  0  0  0  0  0  0  0  0  0
   20.3140   18.6968   20.1755 C   0  0  0  0  0  0  0  0  0  0  0  0
   21.3572   19.0277   20.0749 H   0  0  0  0  0  0  0  0  0  0  0  0
   20.3265   17.5980   20.1546 H   0  0  0  0  0  0  0  0  0  0  0  0
   19.7392   19.1863   21.5233 C   0  0  0  0  0  0  0  0  0  0  0  0
   19.7267   20.2849   21.5386 H   0  0  0  0  0  0  0  0  0  0  0  0
   18.6958   18.8552   21.6181 H   0  0  0  0  0  0  0  0  0  0  0  0
   20.5592   18.6619   22.7237 C   0  0  0  0  0  0  0  0  0  0  0  0
   21.6027   18.9926   22.6271 H   0  0  0  0  0  0  0  0  0  0  0  0
   20.5711   17.5633   22.7079 H   0  0  0  0  0  0  0  0  0  0  0  0
   19.9844   19.1524   24.0719 C   0  0  0  0  0  0  0  0  0  0  0  0
   19.9753   20.2512   24.0887 H   0  0  0  0  0  0  0  0  0  0  0  0
   18.9405   18.8235   24.1609 H   0  0  0  0  0  0  0  0  0  0  0  0
   20.8062   18.6259   25.2722 C   0  0  0  0  0  0  0  0  0  0  0  0
   21.8554   18.9282   25.1553 H   0  0  0  0  0  0  0  0  0  0  0  0
   20.7958   17.5278   25.2829 H   0  0  0  0  0  0  0  0  0  0  0  0
   20.2934   19.1583   26.6242 C   0  0  0  0  0  0  0  0  0  0  0  0
   20.9606   18.8225   27.4228 H   0  0  0  0  0  0  0  0  0  0  0  0
   20.2968   20.2516   26.6145 H   0  0  0  0  0  0  0  0  0  0  0  0
   18.8920   18.6950   26.9709 N   0  3  0  0  0  0  0  0  0  0  0  0
   18.5861   19.0559   27.8812 H   0  0  0  0  0  0  0  0  0  0  0  0
   18.8296   17.6728   27.0179 H   0  0  0  0  0  0  0  0  0  0  0  0
   18.2058   19.0092   26.2779 H   0  0  0  0  0  0  0  0  0  0  0  0
  1  2  1  0  0  0  0
  1  3  1  0  0  0  0
  1  4  1  0  0  0  0
  1  5  1  0  0  0  0
  5  6  1  0  0  0  0
  5  7  1  0  0  0  0
  5  8  1  0  0  0  0
  8  9  1  0  0  0  0
  8 10  1  0  0  0  0
  8 11  1  0  0  0  0
 11 12  1  0  0  0  0
 11 13  1  0  0  0  0
 11 14  1  0  0  0  0
 14 15  1  0  0  0  0
 14 16  1  0  0  0  0
 14 17  1  0  0  0  0
 17 18  1  0  0  0  0
 17 19  1  0  0  0  0
 17 20  1  0  0  0  0
 20 21  1  0  0  0  0
 20 22  1  0  0  0  0
 20 23  1  0  0  0  0
 23 24  1  0  0  0  0
 23 25  1  0  0  0  0
 23 26  1  0  0  0  0
M  END
> <VM2 Rank>
3

> <Conf_Id>
1027

> <Probability>
4.67

> <Sum Probability>
16.76

> <Delta G>
0.265

> <G>
48.526

> <E>
16.070

> <-TS>
32.455

> <U+W>
-5.391

> <U>
47.845

> <W>
-53.236

> <W(PB)>
-55.585

> <W(SA)>
2.349

> <Valence>
2.258

> <Coulomb>
44.893

> <VdW>
0.694

> <VdW6>
-6.285

> <VdW12>
6.979

> <Bond>
0.149

> <Angle>
0.434

> <Pdih>
1.675

> <Idih>
0.000

> <Tether>
0.000

$$$$
VeraChem MOL file


 26 25  0  0  0  0  0  0  0  0999 V2000     
   19.7686   18.8534   18.9897 C   0  0  0  0  0  0  0  0  0  0  0  0
   20.5473   19.5752   18.7103 H   0  0  0  0  0  0  0  0  0  0  0  0
   19.7778   18.0440   18.2481 H   0  0  0  0  0  0  0  0  0  0  0  0
   18.7958   19.3581   18.9257 H   0  0  0  0  0  0  0  0  0  0  0  0
   20.0122   18.2958   20.4081 C   0  0  0  0  0  0  0  0  0  0  0  0
   20.9760   17.7682   20.4318 H   0  0  0  0  0  0  0  0  0  0  0  0
   19.2380   17.5526   20.6454 H   0  0  0  0  0  0  0  0  0  0  0  0
   20.0042   19.4156   21.4722 C   0  0  0  0  0  0  0  0  0  0  0  0
   20.7776   20.1572   21.2287 H   0  0  0  0  0  0  0  0  0  0  0  0
   19.0397   19.9413   21.4434 H   0  0  0  0  0  0  0  0  0  0  0  0
   20.2481   18.8613   22.8940 C   0  0  0  0  0  0  0  0  0  0  0  0
   21.2140   18.3382   22.9221 H   0  0  0  0  0  0  0  0  0  0  0  0
   19.4755   18.1166   23.1278 H   0  0  0  0  0  0  0  0  0  0  0  0
   20.2382   19.9852   23.9578 C   0  0  0  0  0  0  0  0  0  0  0  0
   20.9815   20.7472   23.6851 H   0  0  0  0  0  0  0  0  0  0  0  0
   19.2617   20.4892   23.9558 H   0  0  0  0  0  0  0  0  0  0  0  0
   20.5521   19.4746   25.3837 C   0  0  0  0  0  0  0  0  0  0  0  0
   20.6147   20.3342   26.0643 H   0  0  0  0  0  0  0  0  0  0  0  0
   21.5389   18.9927   25.3943 H   0  0  0  0  0  0  0  0  0  0  0  0
   19.4900   18.4917   25.9111 C   0  0  0  0  0  0  0  0  0  0  0  0
   18.5077   18.9716   25.9018 H   0  0  0  0  0  0  0  0  0  0  0  0
   19.4489   17.6099   25.2666 H   0  0  0  0  0  0  0  0  0  0  0  0
   19.7675   18.0214   27.3244 N   0  3  0  0  0  0  0  0  0  0  0  0
   19.0494   17.3684   27.6566 H   0  0  0  0  0  0  0  0  0  0  0  0
   19.7913   18.8018   27.9890 H   0  0  0  0  0  0  0  0  0  0  0  0
   20.6680   17.5365   27.3960 H   0  0  0  0  0  0  0  0  0  0  0  0
  1  2  1  0  0  0  0
  1  3  1  0  0  0  0
  1  4  1  0  0  0  0
  1  5  1  0  0  0  0
  5  6  1  0  0  0  0
  5  7  1  0  0  0  0
  5  8  1  0  0  0  0
  8  9  1  0  0  0  0
  8 10  1  0  0  0  0
  8 11  1  0  0  0  0
 11 12  1  0  0  0  0
 11 13  1  0  0  0  0
 11 14  1  0  0  0  0
 14 15  1  0  0  0  0
 14 16  1  0  0  0  0
 14 17  1  0  0  0  0
 17 18  1  0  0  0  0
 17 19  1  0  0  0  0
 17 20  1  0  0  0  0
 20 21  1  0  0  0  0
 20 22  1  0  0  0  0
 20 23  1  0  0  0  0
 23 24  1  0  0  0  0
 23 25  1  0  0  0  0
 23 26  1  0  0  0  0
M  END
> <VM2 Rank>
4

> <Conf_Id>
1028

> <Probability>
3.31

> <Sum Probability>
20.07

> <Delta G>
0.470

> <G>
48.731

> <E>
16.280

> <-TS>
32.451

> <U+W>
-5.182

> <U>
48.002

> <W>
-53.183

> <W(PB)>
-55.533

> <W(SA)>
2.350

> <Valence>
2.459

> <Coulomb>
44.900

> <VdW>
0.643

> <VdW6>
-6.362

> <VdW12>
7.005

> <Bond>
0.151

> <Angle>
0.519

> <Pdih>
1.789

> <Idih>
0.000

> <Tether>
0.000

$$$$
VeraChem MOL file


 26 25  0  0  0  0  0  0  0  0999 V2000     
   20.3710   19.2510   19.0099 C   0  0  0  0  0  0  0  0  0  0  0  0
   19.4151   18.8295   18.6725 H   0  0  0  0  0  0  0  0  0  0  0  0
   20.2930   20.3455   18.9761 H   0  0  0  0  0  0  0  0  0  0  0  0
   21.1452   18.9461   18.2938 H   0  0  0  0  0  0  0  0  0  0  0  0
   20.7212   18.7634   20.4317 C   0  0  0  0  0  0  0  0  0  0  0  0
   21.6969   19.1736   20.7277 H   0  0  0  0  0  0  0  0  0  0  0  0
   20.8258   17.6693   20.4265 H   0  0  0  0  0  0  0  0  0  0  0  0
   19.6464   19.1797   21.4603 C   0  0  0  0  0  0  0  0  0  0  0  0
   19.5440   20.2738   21.4605 H   0  0  0  0  0  0  0  0  0  0  0  0
   18.6728   18.7695   21.1584 H   0  0  0  0  0  0  0  0  0  0  0  0
   19.9935   18.6931   22.8854 C   0  0  0  0  0  0  0  0  0  0  0  0
   20.9701   19.1017   23.1778 H   0  0  0  0  0  0  0  0  0  0  0  0
   20.0931   17.5988   22.8844 H   0  0  0  0  0  0  0  0  0  0  0  0
   18.9156   19.1127   23.9136 C   0  0  0  0  0  0  0  0  0  0  0  0
   18.8363   20.2084   23.9416 H   0  0  0  0  0  0  0  0  0  0  0  0
   17.9365   18.7388   23.5834 H   0  0  0  0  0  0  0  0  0  0  0  0
   19.1951   18.5794   25.3384 C   0  0  0  0  0  0  0  0  0  0  0  0
   19.2500   17.4828   25.3179 H   0  0  0  0  0  0  0  0  0  0  0  0
   18.3493   18.8399   25.9886 H   0  0  0  0  0  0  0  0  0  0  0  0
   20.4904   19.1515   25.9445 C   0  0  0  0  0  0  0  0  0  0  0  0
   21.3465   18.8615   25.3300 H   0  0  0  0  0  0  0  0  0  0  0  0
   20.4356   20.2433   25.9661 H   0  0  0  0  0  0  0  0  0  0  0  0
   20.7477   18.6681   27.3571 N   0  3  0  0  0  0  0  0  0  0  0  0
   21.6139   19.0602   27.7423 H   0  0  0  0  0  0  0  0  0  0  0  0
   20.8363   17.6477   27.4017 H   0  0  0  0  0  0  0  0  0  0  0  0
   19.9906   18.9334   27.9956 H   0  0  0  0  0  0  0  0  0  0  0  0
  1  2  1  0  0  0  0
  1  3  1  0  0  0  0
  1  4  1  0  0  0  0
  1  5  1  0  0  0  0
  5  6  1  0  0  0  0
  5  7  1  0  0  0  0
  5  8  1  0  0  0  0
  8  9  1  0  0  0  0
  8 10  1  0  0  0  0
  8 11  1  0  0  0  0
 11 12  1  0  0  0  0
 11 13  1  0  0  0  0
 11 14  1  0  0  0  0
 14 15  1  0  0  0  0
 14 16  1  0  0  0  0
 14 17  1  0  0  0  0
 17 18  1  0  0  0  0
 17 19  1  0  0  0  0
 17 20  1  0  0  0  0
 20 21  1  0  0  0  0
 20 22  1  0  0  0  0
 20 23  1  0  0  0  0
 23 24  1  0  0  0  0
 23 25  1  0  0  0  0
 23 26  1  0  0  0  0
M  END
> <VM2 Rank>
5

> <Conf_Id>
934

> <Probability>
3.29

> <Sum Probability>
23.37

> <Delta G>
0.473

> <G>
48.734

> <E>
16.283

> <-TS>
32.451

> <U+W>
-5.178

> <U>
48.002

> <W>
-53.180

> <W(PB)>
-55.522

> <W(SA)>
2.341

> <Valence>
2.459

> <Coulomb>
44.900

> <VdW>
0.643

> <VdW6>
-6.362

> <VdW12>
7.005

> <Bond>
0.151

> <Angle>
0.519

> <Pdih>
1.789

> <Idih>
0.000

> <Tether>
0.000

$$$$
VeraChem MOL file


 26 25  0  0  0  0  0  0  0  0999 V2000     
   19.4448   18.1622   19.5242 C   0  0  0  0  0  0  0  0  0  0  0  0
   18.4489   18.6238   19.5137 H   0  0  0  0  0  0  0  0  0  0  0  0
   19.6602   17.8057   18.5086 H   0  0  0  0  0  0  0  0  0  0  0  0
   19.4104   17.2843   20.1811 H   0  0  0  0  0  0  0  0  0  0  0  0
   20.5209   19.1726   19.9822 C   0  0  0  0  0  0  0  0  0  0  0  0
   20.6013   19.9695   19.2297 H   0  0  0  0  0  0  0  0  0  0  0  0
   21.5023   18.6789   20.0130 H   0  0  0  0  0  0  0  0  0  0  0  0
   20.2154   19.8164   21.3563 C   0  0  0  0  0  0  0  0  0  0  0  0
   20.9651   20.5960   21.5502 H   0  0  0  0  0  0  0  0  0  0  0  0
   19.2431   20.3263   21.3143 H   0  0  0  0  0  0  0  0  0  0  0  0
   20.2242   18.8044   22.5271 C   0  0  0  0  0  0  0  0  0  0  0  0
   21.1785   18.2599   22.5339 H   0  0  0  0  0  0  0  0  0  0  0  0
   19.4318   18.0585   22.3822 H   0  0  0  0  0  0  0  0  0  0  0  0
   20.0186   19.5030   23.8904 C   0  0  0  0  0  0  0  0  0  0  0  0
   20.8118   20.2475   24.0459 H   0  0  0  0  0  0  0  0  0  0  0  0
   19.0658   20.0507   23.8823 H   0  0  0  0  0  0  0  0  0  0  0  0
   20.0230   18.4950   25.0607 C   0  0  0  0  0  0  0  0  0  0  0  0
   20.9758   17.9489   25.0749 H   0  0  0  0  0  0  0  0  0  0  0  0
   19.2278   17.7523   24.9124 H   0  0  0  0  0  0  0  0  0  0  0  0
   19.8179   19.2010   26.4126 C   0  0  0  0  0  0  0  0  0  0  0  0
   20.6168   19.9301   26.5722 H   0  0  0  0  0  0  0  0  0  0  0  0
   18.8625   19.7327   26.4090 H   0  0  0  0  0  0  0  0  0  0  0  0
   19.8162   18.2444   27.5875 N   0  3  0  0  0  0  0  0  0  0  0  0
   19.6782   18.7349   28.4779 H   0  0  0  0  0  0  0  0  0  0  0  0
   20.7005   17.7311   27.6637 H   0  0  0  0  0  0  0  0  0  0  0  0
   19.0681   17.5474   27.5119 H   0  0  0  0  0  0  0  0  0  0  0  0
  1  2  1  0  0  0  0
  1  3  1  0  0  0  0
  1  4  1  0  0  0  0
  1  5  1  0  0  0  0
  5  6  1  0  0  0  0
  5  7  1  0  0  0  0
  5  8  1  0  0  0  0
  8  9  1  0  0  0  0
  8 10  1  0  0  0  0
  8 11  1  0  0  0  0
 11 12  1  0  0  0  0
 11 13  1  0  0  0  0
 11 14  1  0  0  0  0
 14 15  1  0  0  0  0
 14 16  1  0  0  0  0
 14 17  1  0  0  0  0
 17 18  1  0  0  0  0
 17 19  1  0  0  0  0
 17 20  1  0  0  0  0
 20 21  1  0  0  0  0
 20 22  1  0  0  0  0
 20 23  1  0  0  0  0
 23 24  1  0  0  0  0
 23 25  1  0  0  0  0
 23 26  1  0  0  0  0
M  END
> <VM2 Rank>
6

> <Conf_Id>
1030

> <Probability>
2.72

> <Sum Probability>
26.09

> <Delta G>
0.588

> <G>
48.849

> <E>
16.386

> <-TS>
32.463

> <U+W>
-5.076

> <U>
47.845

> <W>
-52.921

> <W(PB)>
-55.283

> <W(SA)>
2.362

> <Valence>
2.661

> <Coulomb>
44.462

> <VdW>
0.722

> <VdW6>
-6.379

> <VdW12>
7.102

> <Bond>
0.164

> <Angle>
0.634

> <Pdih>
1.863

> <Idih>
0.000

> <Tether>
0.000

$$$$
VeraChem MOL file


 26 25  0  0  0  0  0  0  0  0999 V2000     
   21.1081   19.2588   19.5798 C   0  0  0  0  0  0  0  0  0  0  0  0
   21.0760   20.3559   19.6016 H   0  0  0  0  0  0  0  0  0  0  0  0
   21.8973   18.9238   20.2642 H   0  0  0  0  0  0  0  0  0  0  0  0
   21.3981   18.9515   18.5667 H   0  0  0  0  0  0  0  0  0  0  0  0
   19.7359   18.6551   19.9560 C   0  0  0  0  0  0  0  0  0  0  0  0
   19.8023   17.5581   19.9562 H   0  0  0  0  0  0  0  0  0  0  0  0
   19.0076   18.9187   19.1764 H   0  0  0  0  0  0  0  0  0  0  0  0
   19.2008   19.1474   21.3224 C   0  0  0  0  0  0  0  0  0  0  0  0
   19.1163   20.2428   21.3100 H   0  0  0  0  0  0  0  0  0  0  0  0
   18.1813   18.7603   21.4572 H   0  0  0  0  0  0  0  0  0  0  0  0
   20.0723   18.7043   22.5220 C   0  0  0  0  0  0  0  0  0  0  0  0
   21.0754   19.1425   22.4371 H   0  0  0  0  0  0  0  0  0  0  0  0
   20.1973   17.6129   22.5011 H   0  0  0  0  0  0  0  0  0  0  0  0
   19.4481   19.1268   23.8713 C   0  0  0  0  0  0  0  0  0  0  0  0
   19.3196   20.2181   23.8908 H   0  0  0  0  0  0  0  0  0  0  0  0
   18.4455   18.6870   23.9668 H   0  0  0  0  0  0  0  0  0  0  0  0
   20.3177   18.6893   25.0705 C   0  0  0  0  0  0  0  0  0  0  0  0
   21.3191   19.1315   24.9823 H   0  0  0  0  0  0  0  0  0  0  0  0
   20.4445   17.5985   25.0570 H   0  0  0  0  0  0  0  0  0  0  0  0
   19.6869   19.1145   26.4082 C   0  0  0  0  0  0  0  0  0  0  0  0
   19.5738   20.2018   26.4328 H   0  0  0  0  0  0  0  0  0  0  0  0
   18.6960   18.6633   26.5079 H   0  0  0  0  0  0  0  0  0  0  0  0
   20.5113   18.7027   27.6107 N   0  3  0  0  0  0  0  0  0  0  0  0
   20.0735   18.9955   28.4911 H   0  0  0  0  0  0  0  0  0  0  0  0
   21.4489   19.1173   27.5915 H   0  0  0  0  0  0  0  0  0  0  0  0
   20.6320   17.6858   27.6613 H   0  0  0  0  0  0  0  0  0  0  0  0
  1  2  1  0  0  0  0
  1  3  1  0  0  0  0
  1  4  1  0  0  0  0
  1  5  1  0  0  0  0
  5  6  1  0  0  0  0
  5  7  1  0  0  0  0
  5  8  1  0  0  0  0
  8  9  1  0  0  0  0
  8 10  1  0  0  0  0
  8 11  1  0  0  0  0
 11 12  1  0  0  0  0
 11 13  1  0  0  0  0
 11 14  1  0  0  0  0
 14 15  1  0  0  0  0
 14 16  1  0  0  0  0
 14 17  1  0  0  0  0
 17 18  1  0  0  0  0
 17 19  1  0  0  0  0
 17 20  1  0  0  0  0
 20 21  1  0  0  0  0
 20 22  1  0  0  0  0
 20 23  1  0  0  0  0
 23 24  1  0  0  0  0
 23 25  1  0  0  0  0
 23 26  1  0  0  0  0
M  END
> <VM2 Rank>
7

> <Conf_Id>
999

> <Probability>
2.54

> <Sum Probability>
28.62

> <Delta G>
0.629

> <G>
48.890

> <E>
16.427

> <-TS>
32.463

> <U+W>
-5.035

> <U>
47.845

> <W>
-52.880

> <W(PB)>
-55.232

> <W(SA)>
2.352

> <Valence>
2.661

> <Coulomb>
44.462

> <VdW>
0.723

> <VdW6>
-6.379

> <VdW12>
7.102

> <Bond>
0.164

> <Angle>
0.634

> <Pdih>
1.863

> <Idih>
0.000

> <Tether>
0.000

$$$$
VeraChem MOL file


 26 25  0  0  0  0  0  0  0  0999 V2000     
   20.1863   19.7828   19.1892 C   0  0  0  0  0  0  0  0  0  0  0  0
   20.2155   18.9014   18.5353 H   0  0  0  0  0  0  0  0  0  0  0  0
   19.1866   20.2305   19.1153 H   0  0  0  0  0  0  0  0  0  0  0  0
   20.9114   20.5116   18.8044 H   0  0  0  0  0  0  0  0  0  0  0  0
   20.5171   19.4032   20.6482 C   0  0  0  0  0  0  0  0  0  0  0  0
   20.5184   20.3141   21.2613 H   0  0  0  0  0  0  0  0  0  0  0  0
   21.5327   18.9858   20.6945 H   0  0  0  0  0  0  0  0  0  0  0  0
   19.5050   18.3792   21.2142 C   0  0  0  0  0  0  0  0  0  0  0  0
   18.4972   18.8169   21.2168 H   0  0  0  0  0  0  0  0  0  0  0  0
   19.4620   17.5113   20.5417 H   0  0  0  0  0  0  0  0  0  0  0  0
   19.8577   17.8796   22.6369 C   0  0  0  0  0  0  0  0  0  0  0  0
   20.8595   17.4281   22.6300 H   0  0  0  0  0  0  0  0  0  0  0  0
   19.1590   17.0752   22.9055 H   0  0  0  0  0  0  0  0  0  0  0  0
   19.7905   18.9868   23.7163 C   0  0  0  0  0  0  0  0  0  0  0  0
   20.5373   19.7634   23.5051 H   0  0  0  0  0  0  0  0  0  0  0  0
   18.8055   19.4729   23.6835 H   0  0  0  0  0  0  0  0  0  0  0  0
   20.0384   18.4224   25.1326 C   0  0  0  0  0  0  0  0  0  0  0  0
   21.0227   17.9367   25.1699 H   0  0  0  0  0  0  0  0  0  0  0  0
   19.2897   17.6521   25.3608 H   0  0  0  0  0  0  0  0  0  0  0  0
   19.9736   19.5298   26.1993 C   0  0  0  0  0  0  0  0  0  0  0  0
   20.7286   20.2912   25.9859 H   0  0  0  0  0  0  0  0  0  0  0  0
   18.9893   20.0054   26.1768 H   0  0  0  0  0  0  0  0  0  0  0  0
   20.2124   19.0153   27.6041 N   0  3  0  0  0  0  0  0  0  0  0  0
   20.1649   19.7686   28.2989 H   0  0  0  0  0  0  0  0  0  0  0  0
   21.1354   18.5791   27.6997 H   0  0  0  0  0  0  0  0  0  0  0  0
   19.5171   18.3132   27.8774 H   0  0  0  0  0  0  0  0  0  0  0  0
  1  2  1  0  0  0  0
  1  3  1  0  0  0  0
  1  4  1  0  0  0  0
  1  5  1  0  0  0  0
  5  6  1  0  0  0  0
  5  7  1  0  0  0  0
  5  8  1  0  0  0  0
  8  9  1  0  0  0  0
  8 10  1  0  0  0  0
  8 11  1  0  0  0  0
 11 12  1  0  0  0  0
 11 13  1  0  0  0  0
 11 14  1  0  0  0  0
 14 15  1  0  0  0  0
 14 16  1  0  0  0  0
 14 17  1  0  0  0  0
 17 18  1  0  0  0  0
 17 19  1  0  0  0  0
 17 20  1  0  0  0  0
 20 21  1  0  0  0  0
 20 22  1  0  0  0  0
 20 23  1  0  0  0  0
 23 24  1  0  0  0  0
 23 25  1  0  0  0  0
 23 26  1  0  0  0  0
M  END
> <VM2 Rank>
8

> <Conf_Id>
1512

> <Probability>
2.39

> <Sum Probability>
31.02

> <Delta G>
0.663

> <G>
48.924

> <E>
16.474

> <-TS>
32.451

> <U+W>
-4.988

> <U>
48.035

> <W>
-53.023

> <W(PB)>
-55.380

> <W(SA)>
2.357

> <Valence>
2.701

> <Coulomb>
44.622

> <VdW>
0.712

> <VdW6>
-6.418

> <VdW12>
7.129

> <Bond>
0.168

> <Angle>
0.659

> <Pdih>
1.875

> <Idih>
0.000

> <Tether>
0.000

$$$$
VeraChem MOL file


 26 25  0  0  0  0  0  0  0  0999 V2000     
   20.8452   19.8696   19.4336 C   0  0  0  0  0  0  0  0  0  0  0  0
   21.8102   20.1734   19.8598 H   0  0  0  0  0  0  0  0  0  0  0  0
   21.0195   19.5525   18.3972 H   0  0  0  0  0  0  0  0  0  0  0  0
   20.1891   20.7496   19.4109 H   0  0  0  0  0  0  0  0  0  0  0  0
   20.2114   18.7262   20.2540 C   0  0  0  0  0  0  0  0  0  0  0  0
   20.8743   17.8498   20.2308 H   0  0  0  0  0  0  0  0  0  0  0  0
   19.2661   18.4212   19.7836 H   0  0  0  0  0  0  0  0  0  0  0  0
   19.9545   19.1467   21.7181 C   0  0  0  0  0  0  0  0  0  0  0  0
   20.9042   19.4572   22.1728 H   0  0  0  0  0  0  0  0  0  0  0  0
   19.2900   20.0216   21.7361 H   0  0  0  0  0  0  0  0  0  0  0  0
   19.3225   17.9994   22.5426 C   0  0  0  0  0  0  0  0  0  0  0  0
   20.0091   17.1421   22.5719 H   0  0  0  0  0  0  0  0  0  0  0  0
   18.4149   17.6499   22.0313 H   0  0  0  0  0  0  0  0  0  0  0  0
   18.9435   18.4101   23.9868 C   0  0  0  0  0  0  0  0  0  0  0  0
   18.2433   19.2565   23.9574 H   0  0  0  0  0  0  0  0  0  0  0  0
   18.4004   17.5770   24.4545 H   0  0  0  0  0  0  0  0  0  0  0  0
   20.1622   18.7718   24.8680 C   0  0  0  0  0  0  0  0  0  0  0  0
   20.6724   19.6552   24.4639 H   0  0  0  0  0  0  0  0  0  0  0  0
   20.8854   17.9456   24.8563 H   0  0  0  0  0  0  0  0  0  0  0  0
   19.7381   19.0592   26.3191 C   0  0  0  0  0  0  0  0  0  0  0  0
   19.0301   19.8921   26.3375 H   0  0  0  0  0  0  0  0  0  0  0  0
   19.2446   18.1788   26.7396 H   0  0  0  0  0  0  0  0  0  0  0  0
   20.9036   19.4161   27.2189 N   0  3  0  0  0  0  0  0  0  0  0  0
   20.5990   19.6030   28.1805 H   0  0  0  0  0  0  0  0  0  0  0  0
   21.3952   20.2548   26.8933 H   0  0  0  0  0  0  0  0  0  0  0  0
   21.5949   18.6603   27.2667 H   0  0  0  0  0  0  0  0  0  0  0  0
  1  2  1  0  0  0  0
  1  3  1  0  0  0  0
  1  4  1  0  0  0  0
  1  5  1  0  0  0  0
  5  6  1  0  0  0  0
  5  7  1  0  0  0  0
  5  8  1  0  0  0  0
  8  9  1  0  0  0  0
  8 10  1  0  0  0  0
  8 11  1  0  0  0  0
 11 12  1  0  0  0  0
 11 13  1  0  0  0  0
 11 14  1  0  0  0  0
 14 15  1  0  0  0  0
 14 16  1  0  0  0  0
 14 17  1  0  0  0  0
 17 18  1  0  0  0  0
 17 19  1  0  0  0  0
 17 20  1  0  0  0  0
 20 21  1  0  0  0  0
 20 22  1  0  0  0  0
 20 23  1  0  0  0  0
 23 24  1  0  0  0  0
 23 25  1  0  0  0  0
 23 26  1  0  0  0  0
M  END
> <VM2 Rank>
9

> <Conf_Id>
611

> <Probability>
2.39

> <Sum Probability>
33.41

> <Delta G>
0.664

> <G>
48.926

> <E>
16.473

> <-TS>
32.453

> <U+W>
-4.989

> <U>
48.214

> <W>
-53.203

> <W(PB)>
-55.543

> <W(SA)>
2.340

> <Valence>
2.697

> <Coulomb>
44.818

> <VdW>
0.698

> <VdW6>
-6.437

> <VdW12>
7.136

> <Bond>
0.168

> <Angle>
0.657

> <Pdih>
1.873

> <Idih>
0.000

> <Tether>
0.000

$$$$
VeraChem MOL file


 26 25  0  0  0  0  0  0  0  0999 V2000     
   19.3439   19.2272   19.1611 C   0  0  0  0  0  0  0  0  0  0  0  0
   20.1724   18.8733   18.5339 H   0  0  0  0  0  0  0  0  0  0  0  0
   18.4077   18.8601   18.7208 H   0  0  0  0  0  0  0  0  0  0  0  0
   19.3283   20.3241   19.1201 H   0  0  0  0  0  0  0  0  0  0  0  0
   19.4949   18.7288   20.6141 C   0  0  0  0  0  0  0  0  0  0  0  0
   19.4776   17.6300   20.6257 H   0  0  0  0  0  0  0  0  0  0  0  0
   18.6290   19.0676   21.1982 H   0  0  0  0  0  0  0  0  0  0  0  0
   20.8064   19.2376   21.2577 C   0  0  0  0  0  0  0  0  0  0  0  0
   21.6518   18.9558   20.6149 H   0  0  0  0  0  0  0  0  0  0  0  0
   20.7997   20.3358   21.2938 H   0  0  0  0  0  0  0  0  0  0  0  0
   21.0606   18.6731   22.6771 C   0  0  0  0  0  0  0  0  0  0  0  0
   22.0612   18.9898   23.0025 H   0  0  0  0  0  0  0  0  0  0  0  0
   21.0825   17.5752   22.6375 H   0  0  0  0  0  0  0  0  0  0  0  0
   20.0198   19.1380   23.7240 C   0  0  0  0  0  0  0  0  0  0  0  0
   19.9613   20.2354   23.7221 H   0  0  0  0  0  0  0  0  0  0  0  0
   19.0231   18.7645   23.4544 H   0  0  0  0  0  0  0  0  0  0  0  0
   20.3749   18.6444   25.1439 C   0  0  0  0  0  0  0  0  0  0  0  0
   21.3658   19.0216   25.4302 H   0  0  0  0  0  0  0  0  0  0  0  0
   20.4331   17.5478   25.1502 H   0  0  0  0  0  0  0  0  0  0  0  0
   19.3335   19.1076   26.1779 C   0  0  0  0  0  0  0  0  0  0  0  0
   19.2840   20.1998   26.1867 H   0  0  0  0  0  0  0  0  0  0  0  0
   18.3477   18.7206   25.9063 H   0  0  0  0  0  0  0  0  0  0  0  0
   19.6470   18.6423   27.5852 N   0  3  0  0  0  0  0  0  0  0  0  0
   18.9414   18.9615   28.2581 H   0  0  0  0  0  0  0  0  0  0  0  0
   20.5522   18.9960   27.9120 H   0  0  0  0  0  0  0  0  0  0  0  0
   19.6809   17.6197   27.6511 H   0  0  0  0  0  0  0  0  0  0  0  0
  1  2  1  0  0  0  0
  1  3  1  0  0  0  0
  1  4  1  0  0  0  0
  1  5  1  0  0  0  0
  5  6  1  0  0  0  0
  5  7  1  0  0  0  0
  5  8  1  0  0  0  0
  8  9  1  0  0  0  0
  8 10  1  0  0  0  0
  8 11  1  0  0  0  0
 11 12  1  0  0  0  0
 11 13  1  0  0  0  0
 11 14  1  0  0  0  0
 14 15  1  0  0  0  0
 14 16  1  0  0  0  0
 14 17  1  0  0  0  0
 17 18  1  0  0  0  0
 17 19  1  0  0  0  0
 17 20  1  0  0  0  0
 20 21  1  0  0  0  0
 20 22  1  0  0  0  0
 20 23  1  0  0  0  0
 23 24  1  0  0  0  0
 23 25  1  0  0  0  0
 23 26  1  0  0  0  0
M  END
> <VM2 Rank>
10

> <Conf_Id>
613

> <Probability>
2.37

> <Sum Probability>
35.78

> <Delta G>
0.670

> <G>
48.931

> <E>
16.480

> <-TS>
32.451

> <U+W>
-4.982

> <U>
48.035

> <W>
-53.017

> <W(PB)>
-55.374

> <W(SA)>
2.357

> <Valence>
2.701

> <Coulomb>
44.622

> <VdW>
0.712

> <VdW6>
-6.418

> <VdW12>
7.129

> <Bond>
0.168

> <Angle>
0.659

> <Pdih>
1.875

> <Idih>
0.000

> <Tether>
0.000

$$$$
VeraChem MOL file


 26 25  0  0  0  0  0  0  0  0999 V2000     
   18.9940   18.6487   19.3718 C   0  0  0  0  0  0  0  0  0  0  0  0
   18.3165   17.8688   19.7431 H   0  0  0  0  0  0  0  0  0  0  0  0
   18.4442   19.5987   19.3528 H   0  0  0  0  0  0  0  0  0  0  0  0
   19.2650   18.3956   18.3386 H   0  0  0  0  0  0  0  0  0  0  0  0
   20.2550   18.7551   20.2554 C   0  0  0  0  0  0  0  0  0  0  0  0
   20.9279   19.5178   19.8392 H   0  0  0  0  0  0  0  0  0  0  0  0
   20.8009   17.8016   20.2282 H   0  0  0  0  0  0  0  0  0  0  0  0
   19.9015   19.1117   21.7164 C   0  0  0  0  0  0  0  0  0  0  0  0
   19.3579   20.0662   21.7386 H   0  0  0  0  0  0  0  0  0  0  0  0
   19.2224   18.3476   22.1166 H   0  0  0  0  0  0  0  0  0  0  0  0
   21.1651   19.2146   22.6041 C   0  0  0  0  0  0  0  0  0  0  0  0
   21.8663   19.9263   22.1466 H   0  0  0  0  0  0  0  0  0  0  0  0
   21.6817   18.2451   22.6277 H   0  0  0  0  0  0  0  0  0  0  0  0
   20.8696   19.6802   24.0512 C   0  0  0  0  0  0  0  0  0  0  0  0
   21.8263   19.8363   24.5690 H   0  0  0  0  0  0  0  0  0  0  0  0
   20.3687   20.6580   24.0285 H   0  0  0  0  0  0  0  0  0  0  0  0
   20.0177   18.6765   24.8631 C   0  0  0  0  0  0  0  0  0  0  0  0
   20.4930   17.6868   24.8431 H   0  0  0  0  0  0  0  0  0  0  0  0
   19.0248   18.5687   24.4088 H   0  0  0  0  0  0  0  0  0  0  0  0
   19.8528   19.1348   26.3229 C   0  0  0  0  0  0  0  0  0  0  0  0
   20.8357   19.2278   26.7928 H   0  0  0  0  0  0  0  0  0  0  0  0
   19.3651   20.1130   26.3487 H   0  0  0  0  0  0  0  0  0  0  0  0
   19.0253   18.1774   27.1560 N   0  3  0  0  0  0  0  0  0  0  0  0
   18.0769   18.0668   26.7823 H   0  0  0  0  0  0  0  0  0  0  0  0
   18.9285   18.5013   28.1246 H   0  0  0  0  0  0  0  0  0  0  0  0
   19.4455   17.2430   27.1947 H   0  0  0  0  0  0  0  0  0  0  0  0
  1  2  1  0  0  0  0
  1  3  1  0  0  0  0
  1  4  1  0  0  0  0
  1  5  1  0  0  0  0
  5  6  1  0  0  0  0
  5  7  1  0  0  0  0
  5  8  1  0  0  0  0
  8  9  1  0  0  0  0
  8 10  1  0  0  0  0
  8 11  1  0  0  0  0
 11 12  1  0  0  0  0
 11 13  1  0  0  0  0
 11 14  1  0  0  0  0
 14 15  1  0  0  0  0
 14 16  1  0  0  0  0
 14 17  1  0  0  0  0
 17 18  1  0  0  0  0
 17 19  1  0  0  0  0
 17 20  1  0  0  0  0
 20 21  1  0  0  0  0
 20 22  1  0  0  0  0
 20 23  1  0  0  0  0
 23 24  1  0  0  0  0
 23 25  1  0  0  0  0
 23 26  1  0  0  0  0
M  END
> <VM2 Rank>
11

> <Conf_Id>
201

> <Probability>
2.31

> <Sum Probability>
38.08

> <Delta G>
0.685

> <G>
48.946

> <E>
16.493

> <-TS>
32.453

> <U+W>
-4.969

> <U>
48.214

> <W>
-53.183

> <W(PB)>
-55.531

> <W(SA)>
2.348

> <Valence>
2.697

> <Coulomb>
44.819

> <VdW>
0.698

> <VdW6>
-6.437

> <VdW12>
7.136

> <Bond>
0.168

> <Angle>
0.657

> <Pdih>
1.872

> <Idih>
0.000

> <Tether>
0.000

$$$$
VeraChem MOL file


 26 25  0  0  0  0  0  0  0  0999 V2000     
   20.4624   19.6714   19.5223 C   0  0  0  0  0  0  0  0  0  0  0  0
   19.6843   20.4456   19.5134 H   0  0  0  0  0  0  0  0  0  0  0  0
   21.3149   20.0466   20.1019 H   0  0  0  0  0  0  0  0  0  0  0  0
   20.8042   19.5271   18.4892 H   0  0  0  0  0  0  0  0  0  0  0  0
   19.9205   18.3454   20.1026 C   0  0  0  0  0  0  0  0  0  0  0  0
   20.7250   17.5972   20.1287 H   0  0  0  0  0  0  0  0  0  0  0  0
   19.1537   17.9486   19.4226 H   0  0  0  0  0  0  0  0  0  0  0  0
   19.3019   18.4983   21.5132 C   0  0  0  0  0  0  0  0  0  0  0  0
   18.4848   19.2320   21.4777 H   0  0  0  0  0  0  0  0  0  0  0  0
   18.8452   17.5406   21.7989 H   0  0  0  0  0  0  0  0  0  0  0  0
   20.3283   18.9116   22.5952 C   0  0  0  0  0  0  0  0  0  0  0  0
   20.7424   19.9005   22.3587 H   0  0  0  0  0  0  0  0  0  0  0  0
   21.1689   18.2041   22.5927 H   0  0  0  0  0  0  0  0  0  0  0  0
   19.6923   18.9524   24.0033 C   0  0  0  0  0  0  0  0  0  0  0  0
   18.8512   19.6597   24.0050 H   0  0  0  0  0  0  0  0  0  0  0  0
   19.2783   17.9638   24.2422 H   0  0  0  0  0  0  0  0  0  0  0  0
   20.7174   19.3684   25.0847 C   0  0  0  0  0  0  0  0  0  0  0  0
   21.1528   20.3407   24.8183 H   0  0  0  0  0  0  0  0  0  0  0  0
   21.5478   18.6503   25.1124 H   0  0  0  0  0  0  0  0  0  0  0  0
   20.0898   19.4834   26.4873 C   0  0  0  0  0  0  0  0  0  0  0  0
   20.8383   19.8599   27.1897 H   0  0  0  0  0  0  0  0  0  0  0  0
   19.2587   20.1934   26.4616 H   0  0  0  0  0  0  0  0  0  0  0  0
   19.5684   18.1682   27.0325 N   0  3  0  0  0  0  0  0  0  0  0  0
   19.1694   18.2767   27.9713 H   0  0  0  0  0  0  0  0  0  0  0  0
   20.3103   17.4640   27.1021 H   0  0  0  0  0  0  0  0  0  0  0  0
   18.8325   17.7755   26.4374 H   0  0  0  0  0  0  0  0  0  0  0  0
  1  2  1  0  0  0  0
  1  3  1  0  0  0  0
  1  4  1  0  0  0  0
  1  5  1  0  0  0  0
  5  6  1  0  0  0  0
  5  7  1  0  0  0  0
  5  8  1  0  0  0  0
  8  9  1  0  0  0  0
  8 10  1  0  0  0  0
  8 11  1  0  0  0  0
 11 12  1  0  0  0  0
 11 13  1  0  0  0  0
 11 14  1  0  0  0  0
 14 15  1  0  0  0  0
 14 16  1  0  0  0  0
 14 17  1  0  0  0  0
 17 18  1  0  0  0  0
 17 19  1  0  0  0  0
 17 20  1  0  0  0  0
 20 21  1  0  0  0  0
 20 22  1  0  0  0  0
 20 23  1  0  0  0  0
 23 24  1  0  0  0  0
 23 25  1  0  0  0  0
 23 26  1  0  0  0  0
M  END
> <VM2 Rank>
12

> <Conf_Id>
1271

> <Probability>
1.82

> <Sum Probability>
39.90

> <Delta G>
0.828

> <G>
49.089

> <E>
16.523

> <-TS>
32.566

> <U+W>
-4.939

> <U>
48.461

> <W>
-53.400

> <W(PB)>
-55.707

> <W(SA)>
2.307

> <Valence>
2.762

> <Coulomb>
44.868

> <VdW>
0.832

> <VdW6>
-6.903

> <VdW12>
7.735

> <Bond>
0.184

> <Angle>
0.674

> <Pdih>
1.903

> <Idih>
0.000

> <Tether>
0.000

$$$$
VeraChem MOL file


 26 25  0  0  0  0  0  0  0  0999 V2000     
   20.5613   19.3878   19.2124 C   0  0  0  0  0  0  0  0  0  0  0  0
   19.5327   19.4829   18.8408 H   0  0  0  0  0  0  0  0  0  0  0  0
   20.9775   20.3971   19.3287 H   0  0  0  0  0  0  0  0  0  0  0  0
   21.1497   18.8669   18.4459 H   0  0  0  0  0  0  0  0  0  0  0  0
   20.5995   18.6147   20.5477 C   0  0  0  0  0  0  0  0  0  0  0  0
   21.6427   18.5063   20.8764 H   0  0  0  0  0  0  0  0  0  0  0  0
   20.2090   17.5992   20.3923 H   0  0  0  0  0  0  0  0  0  0  0  0
   19.7781   19.3271   21.6450 C   0  0  0  0  0  0  0  0  0  0  0  0
   20.1708   20.3423   21.7953 H   0  0  0  0  0  0  0  0  0  0  0  0
   18.7371   19.4354   21.3104 H   0  0  0  0  0  0  0  0  0  0  0  0
   19.8137   18.5556   22.9835 C   0  0  0  0  0  0  0  0  0  0  0  0
   20.8570   18.4449   23.3076 H   0  0  0  0  0  0  0  0  0  0  0  0
   19.4177   17.5419   22.8324 H   0  0  0  0  0  0  0  0  0  0  0  0
   18.9916   19.2725   24.0813 C   0  0  0  0  0  0  0  0  0  0  0  0
   19.3987   20.2778   24.2536 H   0  0  0  0  0  0  0  0  0  0  0  0
   17.9629   19.4177   23.7234 H   0  0  0  0  0  0  0  0  0  0  0  0
   18.9420   18.4877   25.4162 C   0  0  0  0  0  0  0  0  0  0  0  0
   18.4533   17.5187   25.2483 H   0  0  0  0  0  0  0  0  0  0  0  0
   18.3096   19.0291   26.1323 H   0  0  0  0  0  0  0  0  0  0  0  0
   20.3253   18.2403   26.0515 C   0  0  0  0  0  0  0  0  0  0  0  0
   20.2040   17.6609   26.9708 H   0  0  0  0  0  0  0  0  0  0  0  0
   20.9493   17.6612   25.3659 H   0  0  0  0  0  0  0  0  0  0  0  0
   21.0695   19.5132   26.4033 N   0  3  0  0  0  0  0  0  0  0  0  0
   20.5444   20.0889   27.0695 H   0  0  0  0  0  0  0  0  0  0  0  0
   21.2430   20.0902   25.5745 H   0  0  0  0  0  0  0  0  0  0  0  0
   21.9811   19.3163   26.8304 H   0  0  0  0  0  0  0  0  0  0  0  0
  1  2  1  0  0  0  0
  1  3  1  0  0  0  0
  1  4  1  0  0  0  0
  1  5  1  0  0  0  0
  5  6  1  0  0  0  0
  5  7  1  0  0  0  0
  5  8  1  0  0  0  0
  8  9  1  0  0  0  0
  8 10  1  0  0  0  0
  8 11  1  0  0  0  0
 11 12  1  0  0  0  0
 11 13  1  0  0  0  0
 11 14  1  0  0  0  0
 14 15  1  0  0  0  0
 14 16  1  0  0  0  0
 14 17  1  0  0  0  0
 17 18  1  0  0  0  0
 17 19  1  0  0  0  0
 17 20  1  0  0  0  0
 20 21  1  0  0  0  0
 20 22  1  0  0  0  0
 20 23  1  0  0  0  0
 23 24  1  0  0  0  0
 23 25  1  0  0  0  0
 23 26  1  0  0  0  0
M  END
> <VM2 Rank>
13

> <Conf_Id>
198

> <Probability>
1.77

> <Sum Probability>
41.67

> <Delta G>
0.842

> <G>
49.103

> <E>
16.466

> <-TS>
32.638

> <U+W>
-4.996

> <U>
48.668

> <W>
-53.664

> <W(PB)>
-55.973

> <W(SA)>
2.309

> <Valence>
2.544

> <Coulomb>
45.478

> <VdW>
0.646

> <VdW6>
-7.095

> <VdW12>
7.741

> <Bond>
0.176

> <Angle>
0.630

> <Pdih>
1.738

> <Idih>
0.000

> <Tether>
0.000

$$$$
VeraChem MOL file


 26 25  0  0  0  0  0  0  0  0999 V2000     
   19.4650   18.1895   19.6037 C   0  0  0  0  0  0  0  0  0  0  0  0
   19.7246   17.2824   20.1634 H   0  0  0  0  0  0  0  0  0  0  0  0
   18.3892   18.3722   19.7235 H   0  0  0  0  0  0  0  0  0  0  0  0
   19.6548   17.9871   18.5417 H   0  0  0  0  0  0  0  0  0  0  0  0
   20.2917   19.4060   20.0785 C   0  0  0  0  0  0  0  0  0  0  0  0
   20.0869   20.2551   19.4115 H   0  0  0  0  0  0  0  0  0  0  0  0
   21.3638   19.1868   19.9765 H   0  0  0  0  0  0  0  0  0  0  0  0
   19.9804   19.8314   21.5337 C   0  0  0  0  0  0  0  0  0  0  0  0
   20.5242   20.7616   21.7488 H   0  0  0  0  0  0  0  0  0  0  0  0
   18.9118   20.0699   21.6254 H   0  0  0  0  0  0  0  0  0  0  0  0
   20.3694   18.7642   22.5848 C   0  0  0  0  0  0  0  0  0  0  0  0
   21.4255   18.4902   22.4552 H   0  0  0  0  0  0  0  0  0  0  0  0
   19.7807   17.8512   22.4260 H   0  0  0  0  0  0  0  0  0  0  0  0
   20.1400   19.2694   24.0273 C   0  0  0  0  0  0  0  0  0  0  0  0
   20.7334   20.1787   24.1967 H   0  0  0  0  0  0  0  0  0  0  0  0
   19.0851   19.5498   24.1481 H   0  0  0  0  0  0  0  0  0  0  0  0
   20.5243   18.2009   25.0780 C   0  0  0  0  0  0  0  0  0  0  0  0
   21.5691   17.8996   24.9247 H   0  0  0  0  0  0  0  0  0  0  0  0
   19.9142   17.2986   24.9381 H   0  0  0  0  0  0  0  0  0  0  0  0
   20.3703   18.7067   26.5253 C   0  0  0  0  0  0  0  0  0  0  0  0
   20.7343   17.9423   27.2173 H   0  0  0  0  0  0  0  0  0  0  0  0
   20.9722   19.6085   26.6662 H   0  0  0  0  0  0  0  0  0  0  0  0
   18.9399   19.0309   26.9097 N   0  3  0  0  0  0  0  0  0  0  0  0
   18.8703   19.3520   27.8815 H   0  0  0  0  0  0  0  0  0  0  0  0
   18.3270   18.2140   26.8197 H   0  0  0  0  0  0  0  0  0  0  0  0
   18.5469   19.7713   26.3204 H   0  0  0  0  0  0  0  0  0  0  0  0
  1  2  1  0  0  0  0
  1  3  1  0  0  0  0
  1  4  1  0  0  0  0
  1  5  1  0  0  0  0
  5  6  1  0  0  0  0
  5  7  1  0  0  0  0
  5  8  1  0  0  0  0
  8  9  1  0  0  0  0
  8 10  1  0  0  0  0
  8 11  1  0  0  0  0
 11 12  1  0  0  0  0
 11 13  1  0  0  0  0
 11 14  1  0  0  0  0
 14 15  1  0  0  0  0
 14 16  1  0  0  0  0
 14 17  1  0  0  0  0
 17 18  1  0  0  0  0
 17 19  1  0  0  0  0
 17 20  1  0  0  0  0
 20 21  1  0  0  0  0
 20 22  1  0  0  0  0
 20 23  1  0  0  0  0
 23 24  1  0  0  0  0
 23 25  1  0  0  0  0
 23 26  1  0  0  0  0
M  END
> <VM2 Rank>
14

> <Conf_Id>
1624

> <Probability>
1.74

> <Sum Probability>
43.41

> <Delta G>
0.855

> <G>
49.116

> <E>
16.550

> <-TS>
32.566

> <U+W>
-4.912

> <U>
48.485

> <W>
-53.397

> <W(PB)>
-55.722

> <W(SA)>
2.324

> <Valence>
2.763

> <Coulomb>
44.894

> <VdW>
0.828

> <VdW6>
-6.905

> <VdW12>
7.733

> <Bond>
0.184

> <Angle>
0.675

> <Pdih>
1.904

> <Idih>
0.000

> <Tether>
0.000

$$$$
VeraChem MOL file


 26 25  0  0  0  0  0  0  0  0999 V2000     
   21.0709   19.2504   19.6573 C   0  0  0  0  0  0  0  0  0  0  0  0
   21.2320   19.0289   18.5943 H   0  0  0  0  0  0  0  0  0  0  0  0
   21.3183   20.3072   19.8212 H   0  0  0  0  0  0  0  0  0  0  0  0
   21.7770   18.6383   20.2320 H   0  0  0  0  0  0  0  0  0  0  0  0
   19.6073   18.9539   20.0556 C   0  0  0  0  0  0  0  0  0  0  0  0
   19.3940   17.8856   19.9108 H   0  0  0  0  0  0  0  0  0  0  0  0
   18.9380   19.4962   19.3732 H   0  0  0  0  0  0  0  0  0  0  0  0
   19.2705   19.3625   21.5100 C   0  0  0  0  0  0  0  0  0  0  0  0
   19.4655   20.4354   21.6439 H   0  0  0  0  0  0  0  0  0  0  0  0
   18.1927   19.2218   21.6708 H   0  0  0  0  0  0  0  0  0  0  0  0
   20.0501   18.5532   22.5741 C   0  0  0  0  0  0  0  0  0  0  0  0
   21.1270   18.7401   22.4710 H   0  0  0  0  0  0  0  0  0  0  0  0
   19.8944   17.4789   22.4040 H   0  0  0  0  0  0  0  0  0  0  0  0
   19.6085   18.9184   24.0095 C   0  0  0  0  0  0  0  0  0  0  0  0
   19.7583   19.9943   24.1706 H   0  0  0  0  0  0  0  0  0  0  0  0
   18.5327   18.7253   24.1232 H   0  0  0  0  0  0  0  0  0  0  0  0
   20.3910   18.1129   25.0736 C   0  0  0  0  0  0  0  0  0  0  0  0
   21.4656   18.3231   24.9901 H   0  0  0  0  0  0  0  0  0  0  0  0
   20.2660   17.0390   24.8812 H   0  0  0  0  0  0  0  0  0  0  0  0
   19.9192   18.4089   26.5103 C   0  0  0  0  0  0  0  0  0  0  0  0
   18.8482   18.2060   26.5952 H   0  0  0  0  0  0  0  0  0  0  0  0
   20.4468   17.7526   27.2077 H   0  0  0  0  0  0  0  0  0  0  0  0
   20.1635   19.8390   26.9506 N   0  3  0  0  0  0  0  0  0  0  0  0
   19.6645   20.5093   26.3576 H   0  0  0  0  0  0  0  0  0  0  0  0
   21.1584   20.0838   26.9145 H   0  0  0  0  0  0  0  0  0  0  0  0
   19.8503   19.9994   27.9142 H   0  0  0  0  0  0  0  0  0  0  0  0
  1  2  1  0  0  0  0
  1  3  1  0  0  0  0
  1  4  1  0  0  0  0
  1  5  1  0  0  0  0
  5  6  1  0  0  0  0
  5  7  1  0  0  0  0
  5  8  1  0  0  0  0
  8  9  1  0  0  0  0
  8 10  1  0  0  0  0
  8 11  1  0  0  0  0
 11 12  1  0  0  0  0
 11 13  1  0  0  0  0
 11 14  1  0  0  0  0
 14 15  1  0  0  0  0
 14 16  1  0  0  0  0
 14 17  1  0  0  0  0
 17 18  1  0  0  0  0
 17 19  1  0  0  0  0
 17 20  1  0  0  0  0
 20 21  1  0  0  0  0
 20 22  1  0  0  0  0
 20 23  1  0  0  0  0
 23 24  1  0  0  0  0
 23 25  1  0  0  0  0
 23 26  1  0  0  0  0
M  END
> <VM2 Rank>
15

> <Conf_Id>
1033

> <Probability>
1.71

> <Sum Probability>
45.12

> <Delta G>
0.865

> <G>
49.126

> <E>
16.560

> <-TS>
32.566

> <U+W>
-4.902

> <U>
48.485

> <W>
-53.387

> <W(PB)>
-55.718

> <W(SA)>
2.331

> <Valence>
2.763

> <Coulomb>
44.894

> <VdW>
0.828

> <VdW6>
-6.904

> <VdW12>
7.733

> <Bond>
0.184

> <Angle>
0.675

> <Pdih>
1.904

> <Idih>
0.000

> <Tether>
0.000

$$$$
VeraChem MOL file


 26 25  0  0  0  0  0  0  0  0999 V2000     
   19.5582   18.7265   19.1789 C   0  0  0  0  0  0  0  0  0  0  0  0
   18.4624   18.7390   19.2447 H   0  0  0  0  0  0  0  0  0  0  0  0
   19.8926   19.7200   18.8528 H   0  0  0  0  0  0  0  0  0  0  0  0
   19.8409   18.0040   18.4023 H   0  0  0  0  0  0  0  0  0  0  0  0
   20.1910   18.3454   20.5341 C   0  0  0  0  0  0  0  0  0  0  0  0
   21.2843   18.3081   20.4282 H   0  0  0  0  0  0  0  0  0  0  0  0
   19.8652   17.3346   20.8171 H   0  0  0  0  0  0  0  0  0  0  0  0
   19.8086   19.3472   21.6460 C   0  0  0  0  0  0  0  0  0  0  0  0
   20.1338   20.3563   21.3570 H   0  0  0  0  0  0  0  0  0  0  0  0
   18.7150   19.3826   21.7467 H   0  0  0  0  0  0  0  0  0  0  0  0
   20.4409   18.9692   23.0045 C   0  0  0  0  0  0  0  0  0  0  0  0
   21.5345   18.9377   22.9031 H   0  0  0  0  0  0  0  0  0  0  0  0
   20.1176   17.9573   23.2829 H   0  0  0  0  0  0  0  0  0  0  0  0
   20.0544   19.9733   24.1168 C   0  0  0  0  0  0  0  0  0  0  0  0
   20.3420   20.9863   23.8029 H   0  0  0  0  0  0  0  0  0  0  0  0
   18.9632   19.9906   24.2390 H   0  0  0  0  0  0  0  0  0  0  0  0
   20.7325   19.6682   25.4760 C   0  0  0  0  0  0  0  0  0  0  0  0
   20.4504   20.4406   26.2038 H   0  0  0  0  0  0  0  0  0  0  0  0
   21.8222   19.7399   25.3609 H   0  0  0  0  0  0  0  0  0  0  0  0
   20.3866   18.2806   26.0535 C   0  0  0  0  0  0  0  0  0  0  0  0
   20.7050   17.5002   25.3576 H   0  0  0  0  0  0  0  0  0  0  0  0
   20.9237   18.1352   26.9947 H   0  0  0  0  0  0  0  0  0  0  0  0
   18.9088   18.0887   26.3313 N   0  3  0  0  0  0  0  0  0  0  0  0
   18.7116   17.1606   26.7212 H   0  0  0  0  0  0  0  0  0  0  0  0
   18.3492   18.1825   25.4780 H   0  0  0  0  0  0  0  0  0  0  0  0
   18.5556   18.7775   27.0034 H   0  0  0  0  0  0  0  0  0  0  0  0
  1  2  1  0  0  0  0
  1  3  1  0  0  0  0
  1  4  1  0  0  0  0
  1  5  1  0  0  0  0
  5  6  1  0  0  0  0
  5  7  1  0  0  0  0
  5  8  1  0  0  0  0
  8  9  1  0  0  0  0
  8 10  1  0  0  0  0
  8 11  1  0  0  0  0
 11 12  1  0  0  0  0
 11 13  1  0  0  0  0
 11 14  1  0  0  0  0
 14 15  1  0  0  0  0
 14 16  1  0  0  0  0
 14 17  1  0  0  0  0
 17 18  1  0  0  0  0
 17 19  1  0  0  0  0
 17 20  1  0  0  0  0
 20 21  1  0  0  0  0
 20 22  1  0  0  0  0
 20 23  1  0  0  0  0
 23 24  1  0  0  0  0
 23 25  1  0  0  0  0
 23 26  1  0  0  0  0
M  END
> <VM2 Rank>
16

> <Conf_Id>
473

> <Probability>
1.68

> <Sum Probability>
46.80

> <Delta G>
0.873

> <G>
49.134

> <E>
16.497

> <-TS>
32.638

> <U+W>
-4.965

> <U>
48.667

> <W>
-53.632

> <W(PB)>
-55.950

> <W(SA)>
2.318

> <Valence>
2.543

> <Coulomb>
45.478

> <VdW>
0.646

> <VdW6>
-7.095

> <VdW12>
7.741

> <Bond>
0.176

> <Angle>
0.630

> <Pdih>
1.738

> <Idih>
0.000

> <Tether>
0.000

$$$$
VeraChem MOL file


 26 25  0  0  0  0  0  0  0  0999 V2000     
   19.3225   18.9187   19.4842 C   0  0  0  0  0  0  0  0  0  0  0  0
   18.9169   19.9388   19.4874 H   0  0  0  0  0  0  0  0  0  0  0  0
   19.3690   18.5794   18.4413 H   0  0  0  0  0  0  0  0  0  0  0  0
   18.6163   18.2657   20.0118 H   0  0  0  0  0  0  0  0  0  0  0  0
   20.7262   18.8766   20.1296 C   0  0  0  0  0  0  0  0  0  0  0  0
   21.4231   19.4456   19.4984 H   0  0  0  0  0  0  0  0  0  0  0  0
   21.0967   17.8421   20.1414 H   0  0  0  0  0  0  0  0  0  0  0  0
   20.7627   19.4621   21.5620 C   0  0  0  0  0  0  0  0  0  0  0  0
   21.8083   19.4955   21.8981 H   0  0  0  0  0  0  0  0  0  0  0  0
   20.4111   20.5029   21.5418 H   0  0  0  0  0  0  0  0  0  0  0  0
   19.9296   18.6492   22.5819 C   0  0  0  0  0  0  0  0  0  0  0  0
   20.2494   17.5982   22.5620 H   0  0  0  0  0  0  0  0  0  0  0  0
   18.8697   18.6661   22.2961 H   0  0  0  0  0  0  0  0  0  0  0  0
   20.0765   19.2062   24.0161 C   0  0  0  0  0  0  0  0  0  0  0  0
   21.1360   19.1891   24.3043 H   0  0  0  0  0  0  0  0  0  0  0  0
   19.7574   20.2576   24.0353 H   0  0  0  0  0  0  0  0  0  0  0  0
   19.2414   18.3956   25.0354 C   0  0  0  0  0  0  0  0  0  0  0  0
   19.5731   17.3488   25.0461 H   0  0  0  0  0  0  0  0  0  0  0  0
   18.1896   18.3877   24.7195 H   0  0  0  0  0  0  0  0  0  0  0  0
   19.3174   18.9740   26.4615 C   0  0  0  0  0  0  0  0  0  0  0  0
   18.9936   20.0183   26.4530 H   0  0  0  0  0  0  0  0  0  0  0  0
   18.6446   18.4138   27.1164 H   0  0  0  0  0  0  0  0  0  0  0  0
   20.7048   18.9165   27.0704 N   0  3  0  0  0  0  0  0  0  0  0  0
   20.7184   19.2968   28.0230 H   0  0  0  0  0  0  0  0  0  0  0  0
   21.3825   19.4555   26.5226 H   0  0  0  0  0  0  0  0  0  0  0  0
   21.0563   17.9551   27.1268 H   0  0  0  0  0  0  0  0  0  0  0  0
  1  2  1  0  0  0  0
  1  3  1  0  0  0  0
  1  4  1  0  0  0  0
  1  5  1  0  0  0  0
  5  6  1  0  0  0  0
  5  7  1  0  0  0  0
  5  8  1  0  0  0  0
  8  9  1  0  0  0  0
  8 10  1  0  0  0  0
  8 11  1  0  0  0  0
 11 12  1  0  0  0  0
 11 13  1  0  0  0  0
 11 14  1  0  0  0  0
 14 15  1  0  0  0  0
 14 16  1  0  0  0  0
 14 17  1  0  0  0  0
 17 18  1  0  0  0  0
 17 19  1  0  0  0  0
 17 20  1  0  0  0  0
 20 21  1  0  0  0  0
 20 22  1  0  0  0  0
 20 23  1  0  0  0  0
 23 24  1  0  0  0  0
 23 25  1  0  0  0  0
 23 26  1  0  0  0  0
M  END
> <VM2 Rank>
17

> <Conf_Id>
1229

> <Probability>
1.64

> <Sum Probability>
48.44

> <Delta G>
0.887

> <G>
49.148

> <E>
16.582

> <-TS>
32.566

> <U+W>
-4.879

> <U>
48.461

> <W>
-53.340

> <W(PB)>
-55.653

> <W(SA)>
2.313

> <Valence>
2.762

> <Coulomb>
44.868

> <VdW>
0.832

> <VdW6>
-6.903

> <VdW12>
7.735

> <Bond>
0.184

> <Angle>
0.674

> <Pdih>
1.903

> <Idih>
0.000

> <Tether>
0.000

$$$$
VeraChem MOL file


 26 25  0  0  0  0  0  0  0  0999 V2000     
   19.4774   19.8805   19.4236 C   0  0  0  0  0  0  0  0  0  0  0  0
   19.7557   20.9010   19.7173 H   0  0  0  0  0  0  0  0  0  0  0  0
   19.7383   19.7514   18.3652 H   0  0  0  0  0  0  0  0  0  0  0  0
   18.3878   19.7831   19.5164 H   0  0  0  0  0  0  0  0  0  0  0  0
   20.2040   18.8345   20.2954 C   0  0  0  0  0  0  0  0  0  0  0  0
   21.2896   18.9346   20.1564 H   0  0  0  0  0  0  0  0  0  0  0  0
   19.9326   17.8252   19.9553 H   0  0  0  0  0  0  0  0  0  0  0  0
   19.8533   18.9934   21.7915 C   0  0  0  0  0  0  0  0  0  0  0  0
   20.1206   20.0076   22.1158 H   0  0  0  0  0  0  0  0  0  0  0  0
   18.7676   18.8905   21.9255 H   0  0  0  0  0  0  0  0  0  0  0  0
   20.5846   17.9475   22.6670 C   0  0  0  0  0  0  0  0  0  0  0  0
   21.6713   18.0820   22.5753 H   0  0  0  0  0  0  0  0  0  0  0  0
   20.3650   16.9422   22.2819 H   0  0  0  0  0  0  0  0  0  0  0  0
   20.1795   17.9996   24.1606 C   0  0  0  0  0  0  0  0  0  0  0  0
   19.0963   17.8409   24.2478 H   0  0  0  0  0  0  0  0  0  0  0  0
   20.6588   17.1588   24.6809 H   0  0  0  0  0  0  0  0  0  0  0  0
   20.5815   19.3205   24.8632 C   0  0  0  0  0  0  0  0  0  0  0  0
   20.0334   20.1675   24.4316 H   0  0  0  0  0  0  0  0  0  0  0  0
   21.6485   19.5144   24.6911 H   0  0  0  0  0  0  0  0  0  0  0  0
   20.3318   19.2813   26.3831 C   0  0  0  0  0  0  0  0  0  0  0  0
   20.8761   18.4418   26.8240 H   0  0  0  0  0  0  0  0  0  0  0  0
   20.7035   20.2044   26.8360 H   0  0  0  0  0  0  0  0  0  0  0  0
   18.8691   19.1417   26.7567 N   0  3  0  0  0  0  0  0  0  0  0  0
   18.7354   19.1295   27.7737 H   0  0  0  0  0  0  0  0  0  0  0  0
   18.4652   18.2740   26.3906 H   0  0  0  0  0  0  0  0  0  0  0  0
   18.3067   19.9164   26.3900 H   0  0  0  0  0  0  0  0  0  0  0  0
  1  2  1  0  0  0  0
  1  3  1  0  0  0  0
  1  4  1  0  0  0  0
  1  5  1  0  0  0  0
  5  6  1  0  0  0  0
  5  7  1  0  0  0  0
  5  8  1  0  0  0  0
  8  9  1  0  0  0  0
  8 10  1  0  0  0  0
  8 11  1  0  0  0  0
 11 12  1  0  0  0  0
 11 13  1  0  0  0  0
 11 14  1  0  0  0  0
 14 15  1  0  0  0  0
 14 16  1  0  0  0  0
 14 17  1  0  0  0  0
 17 18  1  0  0  0  0
 17 19  1  0  0  0  0
 17 20  1  0  0  0  0
 20 21  1  0  0  0  0
 20 22  1  0  0  0  0
 20 23  1  0  0  0  0
 23 24  1  0  0  0  0
 23 25  1  0  0  0  0
 23 26  1  0  0  0  0
M  END
> <VM2 Rank>
18

> <Conf_Id>
1225

> <Probability>
1.59

> <Sum Probability>
50.03

> <Delta G>
0.908

> <G>
49.169

> <E>
16.602

> <-TS>
32.567

> <U+W>
-4.860

> <U>
48.698

> <W>
-53.557

> <W(PB)>
-55.855

> <W(SA)>
2.298

> <Valence>
2.792

> <Coulomb>
45.121

> <VdW>
0.785

> <VdW6>
-6.973

> <VdW12>
7.758

> <Bond>
0.189

> <Angle>
0.672

> <Pdih>
1.931

> <Idih>
0.000

> <Tether>
0.000

$$$$
VeraChem MOL file


 26 25  0  0  0  0  0  0  0  0999 V2000     
   19.5208   19.9091   19.4250 C   0  0  0  0  0  0  0  0  0  0  0  0
   19.5864   19.6511   18.3601 H   0  0  0  0  0  0  0  0  0  0  0  0
   18.4603   20.0457   19.6739 H   0  0  0  0  0  0  0  0  0  0  0  0
   20.0328   20.8692   19.5713 H   0  0  0  0  0  0  0  0  0  0  0  0
   20.1567   18.8032   20.2938 C   0  0  0  0  0  0  0  0  0  0  0  0
   21.2062   18.6661   19.9979 H   0  0  0  0  0  0  0  0  0  0  0  0
   19.6458   17.8493   20.1015 H   0  0  0  0  0  0  0  0  0  0  0  0
   20.0784   19.1421   21.7990 C   0  0  0  0  0  0  0  0  0  0  0  0
   20.5920   20.0951   21.9865 H   0  0  0  0  0  0  0  0  0  0  0  0
   19.0267   19.2853   22.0792 H   0  0  0  0  0  0  0  0  0  0  0  0
   20.7122   18.0318   22.6713 C   0  0  0  0  0  0  0  0  0  0  0  0
   21.7400   17.8500   22.3278 H   0  0  0  0  0  0  0  0  0  0  0  0
   20.1673   17.0890   22.5251 H   0  0  0  0  0  0  0  0  0  0  0  0
   20.7536   18.3787   24.1798 C   0  0  0  0  0  0  0  0  0  0  0  0
   21.3142   17.5915   24.7028 H   0  0  0  0  0  0  0  0  0  0  0  0
   21.3198   19.3089   24.3222 H   0  0  0  0  0  0  0  0  0  0  0  0
   19.3497   18.5073   24.8220 C   0  0  0  0  0  0  0  0  0  0  0  0
   18.7615   17.6084   24.5945 H   0  0  0  0  0  0  0  0  0  0  0  0
   18.8062   19.3573   24.3906 H   0  0  0  0  0  0  0  0  0  0  0  0
   19.4128   18.6746   26.3523 C   0  0  0  0  0  0  0  0  0  0  0  0
   18.3978   18.6823   26.7589 H   0  0  0  0  0  0  0  0  0  0  0  0
   19.9503   17.8307   26.7931 H   0  0  0  0  0  0  0  0  0  0  0  0
   20.0968   19.9522   26.7978 N   0  3  0  0  0  0  0  0  0  0  0  0
   19.6224   20.7850   26.4340 H   0  0  0  0  0  0  0  0  0  0  0  0
   21.0694   19.9932   26.4777 H   0  0  0  0  0  0  0  0  0  0  0  0
   20.1131   20.0390   27.8198 H   0  0  0  0  0  0  0  0  0  0  0  0
  1  2  1  0  0  0  0
  1  3  1  0  0  0  0
  1  4  1  0  0  0  0
  1  5  1  0  0  0  0
  5  6  1  0  0  0  0
  5  7  1  0  0  0  0
  5  8  1  0  0  0  0
  8  9  1  0  0  0  0
  8 10  1  0  0  0  0
  8 11  1  0  0  0  0
 11 12  1  0  0  0  0
 11 13  1  0  0  0  0
 11 14  1  0  0  0  0
 14 15  1  0  0  0  0
 14 16  1  0  0  0  0
 14 17  1  0  0  0  0
 17 18  1  0  0  0  0
 17 19  1  0  0  0  0
 17 20  1  0  0  0  0
 20 21  1  0  0  0  0
 20 22  1  0  0  0  0
 20 23  1  0  0  0  0
 23 24  1  0  0  0  0
 23 25  1  0  0  0  0
 23 26  1  0  0  0  0
M  END
> <VM2 Rank>
19

> <Conf_Id>
272

> <Probability>
1.55

> <Sum Probability>
51.58

> <Delta G>
0.922

> <G>
49.183

> <E>
16.616

> <-TS>
32.567

> <U+W>
-4.846

> <U>
48.698

> <W>
-53.544

> <W(PB)>
-55.868

> <W(SA)>
2.324

> <Valence>
2.792

> <Coulomb>
45.121

> <VdW>
0.785

> <VdW6>
-6.973

> <VdW12>
7.758

> <Bond>
0.189

> <Angle>
0.672

> <Pdih>
1.930

> <Idih>
0.000

> <Tether>
0.000

$$$$
VeraChem MOL file


 26 25  0  0  0  0  0  0  0  0999 V2000     
   19.5017   19.7821   19.3855 C   0  0  0  0  0  0  0  0  0  0  0  0
   20.1439   19.2405   18.6788 H   0  0  0  0  0  0  0  0  0  0  0  0
   18.4989   19.8511   18.9442 H   0  0  0  0  0  0  0  0  0  0  0  0
   19.8941   20.8018   19.4920 H   0  0  0  0  0  0  0  0  0  0  0  0
   19.4481   19.0634   20.7504 C   0  0  0  0  0  0  0  0  0  0  0  0
   19.0246   18.0582   20.6163 H   0  0  0  0  0  0  0  0  0  0  0  0
   18.7659   19.6108   21.4142 H   0  0  0  0  0  0  0  0  0  0  0  0
   20.8507   18.9578   21.3944 C   0  0  0  0  0  0  0  0  0  0  0  0
   21.5355   18.4786   20.6811 H   0  0  0  0  0  0  0  0  0  0  0  0
   21.2513   19.9645   21.5769 H   0  0  0  0  0  0  0  0  0  0  0  0
   20.8686   18.1450   22.7124 C   0  0  0  0  0  0  0  0  0  0  0  0
   21.9131   18.0240   23.0316 H   0  0  0  0  0  0  0  0  0  0  0  0
   20.4843   17.1328   22.5249 H   0  0  0  0  0  0  0  0  0  0  0  0
   20.0653   18.8058   23.8584 C   0  0  0  0  0  0  0  0  0  0  0  0
   20.4154   19.8372   23.9975 H   0  0  0  0  0  0  0  0  0  0  0  0
   19.0027   18.8613   23.5877 H   0  0  0  0  0  0  0  0  0  0  0  0
   20.2070   18.0193   25.1830 C   0  0  0  0  0  0  0  0  0  0  0  0
   21.2607   17.9855   25.4905 H   0  0  0  0  0  0  0  0  0  0  0  0
   19.8936   16.9789   25.0232 H   0  0  0  0  0  0  0  0  0  0  0  0
   19.3579   18.6147   26.3228 C   0  0  0  0  0  0  0  0  0  0  0  0
   18.3087   18.6544   26.0181 H   0  0  0  0  0  0  0  0  0  0  0  0
   19.4328   17.9723   27.2044 H   0  0  0  0  0  0  0  0  0  0  0  0
   19.7817   20.0110   26.7341 N   0  3  0  0  0  0  0  0  0  0  0  0
   19.2058   20.3729   27.5020 H   0  0  0  0  0  0  0  0  0  0  0  0
   19.7005   20.6763   25.9590 H   0  0  0  0  0  0  0  0  0  0  0  0
   20.7556   20.0347   27.0535 H   0  0  0  0  0  0  0  0  0  0  0  0
  1  2  1  0  0  0  0
  1  3  1  0  0  0  0
  1  4  1  0  0  0  0
  1  5  1  0  0  0  0
  5  6  1  0  0  0  0
  5  7  1  0  0  0  0
  5  8  1  0  0  0  0
  8  9  1  0  0  0  0
  8 10  1  0  0  0  0
  8 11  1  0  0  0  0
 11 12  1  0  0  0  0
 11 13  1  0  0  0  0
 11 14  1  0  0  0  0
 14 15  1  0  0  0  0
 14 16  1  0  0  0  0
 14 17  1  0  0  0  0
 17 18  1  0  0  0  0
 17 19  1  0  0  0  0
 17 20  1  0  0  0  0
 20 21  1  0  0  0  0
 20 22  1  0  0  0  0
 20 23  1  0  0  0  0
 23 24  1  0  0  0  0
 23 25  1  0  0  0  0
 23 26  1  0  0  0  0
M  END
> <VM2 Rank>
20

> <Conf_Id>
418

> <Probability>
1.51

> <Sum Probability>
53.09

> <Delta G>
0.940

> <G>
49.201

> <E>
16.644

> <-TS>
32.557

> <U+W>
-4.818

> <U>
48.736

> <W>
-53.554

> <W(PB)>
-55.889

> <W(SA)>
2.335

> <Valence>
2.803

> <Coulomb>
45.124

> <VdW>
0.809

> <VdW6>
-6.953

> <VdW12>
7.762

> <Bond>
0.188

> <Angle>
0.699

> <Pdih>
1.917

> <Idih>
0.000

> <Tether>
0.000

$$$$
VeraChem MOL file


 26 25  0  0  0  0  0  0  0  0999 V2000     
   19.6033   19.8491   19.3889 C   0  0  0  0  0  0  0  0  0  0  0  0
   18.5075   19.8862   19.4457 H   0  0  0  0  0  0  0  0  0  0  0  0
   19.9530   20.8113   18.9927 H   0  0  0  0  0  0  0  0  0  0  0  0
   19.8822   19.0677   18.6700 H   0  0  0  0  0  0  0  0  0  0  0  0
   20.2213   19.5739   20.7762 C   0  0  0  0  0  0  0  0  0  0  0  0
   19.9546   20.3957   21.4538 H   0  0  0  0  0  0  0  0  0  0  0  0
   21.3170   19.5719   20.6928 H   0  0  0  0  0  0  0  0  0  0  0  0
   19.7390   18.2237   21.3573 C   0  0  0  0  0  0  0  0  0  0  0  0
   18.6485   18.2458   21.4899 H   0  0  0  0  0  0  0  0  0  0  0  0
   19.9443   17.4279   20.6279 H   0  0  0  0  0  0  0  0  0  0  0  0
   20.4176   17.8472   22.6973 C   0  0  0  0  0  0  0  0  0  0  0  0
   21.5070   17.8081   22.5591 H   0  0  0  0  0  0  0  0  0  0  0  0
   20.1049   16.8301   22.9712 H   0  0  0  0  0  0  0  0  0  0  0  0
   20.0717   18.8101   23.8586 C   0  0  0  0  0  0  0  0  0  0  0  0
   20.4493   19.8167   23.6360 H   0  0  0  0  0  0  0  0  0  0  0  0
   18.9802   18.8895   23.9495 H   0  0  0  0  0  0  0  0  0  0  0  0
   20.6774   18.3300   25.1987 C   0  0  0  0  0  0  0  0  0  0  0  0
   21.7636   18.2142   25.0857 H   0  0  0  0  0  0  0  0  0  0  0  0
   20.2818   17.3389   25.4578 H   0  0  0  0  0  0  0  0  0  0  0  0
   20.4095   19.3093   26.3579 C   0  0  0  0  0  0  0  0  0  0  0  0
   20.9297   18.9610   27.2544 H   0  0  0  0  0  0  0  0  0  0  0  0
   20.7977   20.2986   26.1013 H   0  0  0  0  0  0  0  0  0  0  0  0
   18.9412   19.4557   26.7061 N   0  3  0  0  0  0  0  0  0  0  0  0
   18.7983   20.1036   27.4885 H   0  0  0  0  0  0  0  0  0  0  0  0
   18.5236   18.5601   26.9792 H   0  0  0  0  0  0  0  0  0  0  0  0
   18.3975   19.8153   25.9156 H   0  0  0  0  0  0  0  0  0  0  0  0
  1  2  1  0  0  0  0
  1  3  1  0  0  0  0
  1  4  1  0  0  0  0
  1  5  1  0  0  0  0
  5  6  1  0  0  0  0
  5  7  1  0  0  0  0
  5  8  1  0  0  0  0
  8  9  1  0  0  0  0
  8 10  1  0  0  0  0
  8 11  1  0  0  0  0
 11 12  1  0  0  0  0
 11 13  1  0  0  0  0
 11 14  1  0  0  0  0
 14 15  1  0  0  0  0
 14 16  1  0  0  0  0
 14 17  1  0  0  0  0
 17 18  1  0  0  0  0
 17 19  1  0  0  0  0
 17 20  1  0  0  0  0
 20 21  1  0  0  0  0
 20 22  1  0  0  0  0
 20 23  1  0  0  0  0
 23 24  1  0  0  0  0
 23 25  1  0  0  0  0
 23 26  1  0  0  0  0
M  END
> <VM2 Rank>
21

> <Conf_Id>
1018

> <Probability>
1.47

> <Sum Probability>
54.57

> <Delta G>
0.952

> <G>
49.213

> <E>
16.657

> <-TS>
32.557

> <U+W>
-4.805

> <U>
48.735

> <W>
-53.540

> <W(PB)>
-55.860

> <W(SA)>
2.320

> <Valence>
2.803

> <Coulomb>
45.123

> <VdW>
0.809

> <VdW6>
-6.953

> <VdW12>
7.762

> <Bond>
0.188

> <Angle>
0.699

> <Pdih>
1.917

> <Idih>
0.000

> <Tether>
0.000

$$$$
VeraChem MOL file


 26 25  0  0  0  0  0  0  0  0999 V2000     
   20.7703   19.7658   19.4728 C   0  0  0  0  0  0  0  0  0  0  0  0
   20.1266   20.6528   19.4088 H   0  0  0  0  0  0  0  0  0  0  0  0
   21.7899   20.0690   19.2018 H   0  0  0  0  0  0  0  0  0  0  0  0
   20.4256   19.0386   18.7260 H   0  0  0  0  0  0  0  0  0  0  0  0
   20.7407   19.1607   20.8924 C   0  0  0  0  0  0  0  0  0  0  0  0
   21.1301   19.9017   21.6029 H   0  0  0  0  0  0  0  0  0  0  0  0
   21.4155   18.2942   20.9329 H   0  0  0  0  0  0  0  0  0  0  0  0
   19.3115   18.7296   21.2985 C   0  0  0  0  0  0  0  0  0  0  0  0
   18.6494   19.6063   21.3103 H   0  0  0  0  0  0  0  0  0  0  0  0
   18.9119   18.0524   20.5309 H   0  0  0  0  0  0  0  0  0  0  0  0
   19.2456   18.0104   22.6683 C   0  0  0  0  0  0  0  0  0  0  0  0
   19.8970   17.1257   22.6508 H   0  0  0  0  0  0  0  0  0  0  0  0
   18.2227   17.6371   22.8150 H   0  0  0  0  0  0  0  0  0  0  0  0
   19.6276   18.9171   23.8631 C   0  0  0  0  0  0  0  0  0  0  0  0
   20.6719   19.2384   23.7640 H   0  0  0  0  0  0  0  0  0  0  0  0
   19.0093   19.8253   23.8468 H   0  0  0  0  0  0  0  0  0  0  0  0
   19.4388   18.1902   25.2157 C   0  0  0  0  0  0  0  0  0  0  0  0
   20.0736   17.2950   25.2537 H   0  0  0  0  0  0  0  0  0  0  0  0
   18.4007   17.8420   25.3001 H   0  0  0  0  0  0  0  0  0  0  0  0
   19.7488   19.0928   26.4256 C   0  0  0  0  0  0  0  0  0  0  0  0
   19.1237   19.9889   26.3862 H   0  0  0  0  0  0  0  0  0  0  0  0
   19.5152   18.5547   27.3484 H   0  0  0  0  0  0  0  0  0  0  0  0
   21.1977   19.5325   26.5046 N   0  3  0  0  0  0  0  0  0  0  0  0
   21.8355   18.7323   26.5663 H   0  0  0  0  0  0  0  0  0  0  0  0
   21.3728   20.1191   27.3277 H   0  0  0  0  0  0  0  0  0  0  0  0
   21.4743   20.0785   25.6829 H   0  0  0  0  0  0  0  0  0  0  0  0
  1  2  1  0  0  0  0
  1  3  1  0  0  0  0
  1  4  1  0  0  0  0
  1  5  1  0  0  0  0
  5  6  1  0  0  0  0
  5  7  1  0  0  0  0
  5  8  1  0  0  0  0
  8  9  1  0  0  0  0
  8 10  1  0  0  0  0
  8 11  1  0  0  0  0
 11 12  1  0  0  0  0
 11 13  1  0  0  0  0
 11 14  1  0  0  0  0
 14 15  1  0  0  0  0
 14 16  1  0  0  0  0
 14 17  1  0  0  0  0
 17 18  1  0  0  0  0
 17 19  1  0  0  0  0
 17 20  1  0  0  0  0
 20 21  1  0  0  0  0
 20 22  1  0  0  0  0
 20 23  1  0  0  0  0
 23 24  1  0  0  0  0
 23 25  1  0  0  0  0
 23 26  1  0  0  0  0
M  END
> <VM2 Rank>
22

> <Conf_Id>
1430

> <Probability>
1.47

> <Sum Probability>
56.03

> <Delta G>
0.955

> <G>
49.216

> <E>
16.667

> <-TS>
32.549

> <U+W>
-4.795

> <U>
48.945

> <W>
-53.739

> <W(PB)>
-56.050

> <W(SA)>
2.311

> <Valence>
2.802

> <Coulomb>
45.335

> <VdW>
0.807

> <VdW6>
-6.962

> <VdW12>
7.769

> <Bond>
0.189

> <Angle>
0.696

> <Pdih>
1.917

> <Idih>
0.000

> <Tether>
0.000

$$$$
VeraChem MOL file


 26 25  0  0  0  0  0  0  0  0999 V2000     
   20.0933   19.8068   19.2485 C   0  0  0  0  0  0  0  0  0  0  0  0
   20.6970   20.6822   19.5212 H   0  0  0  0  0  0  0  0  0  0  0  0
   20.3967   19.4883   18.2427 H   0  0  0  0  0  0  0  0  0  0  0  0
   19.0416   20.1180   19.2006 H   0  0  0  0  0  0  0  0  0  0  0  0
   20.2870   18.6610   20.2644 C   0  0  0  0  0  0  0  0  0  0  0  0
   21.3409   18.3492   20.2659 H   0  0  0  0  0  0  0  0  0  0  0  0
   19.6988   17.7889   19.9460 H   0  0  0  0  0  0  0  0  0  0  0  0
   19.8661   19.0827   21.6897 C   0  0  0  0  0  0  0  0  0  0  0  0
   20.4540   19.9595   21.9907 H   0  0  0  0  0  0  0  0  0  0  0  0
   18.8116   19.3912   21.6834 H   0  0  0  0  0  0  0  0  0  0  0  0
   20.0641   17.9355   22.7097 C   0  0  0  0  0  0  0  0  0  0  0  0
   21.1274   17.6633   22.7602 H   0  0  0  0  0  0  0  0  0  0  0  0
   19.5345   17.0428   22.3492 H   0  0  0  0  0  0  0  0  0  0  0  0
   19.5463   18.2704   24.1303 C   0  0  0  0  0  0  0  0  0  0  0  0
   18.4813   18.5363   24.0804 H   0  0  0  0  0  0  0  0  0  0  0  0
   19.6085   17.3592   24.7397 H   0  0  0  0  0  0  0  0  0  0  0  0
   20.3362   19.4082   24.8249 C   0  0  0  0  0  0  0  0  0  0  0  0
   20.2426   20.3343   24.2444 H   0  0  0  0  0  0  0  0  0  0  0  0
   21.4057   19.1613   24.8539 H   0  0  0  0  0  0  0  0  0  0  0  0
   19.8354   19.6920   26.2544 C   0  0  0  0  0  0  0  0  0  0  0  0
   20.3604   20.5633   26.6555 H   0  0  0  0  0  0  0  0  0  0  0  0
   18.7662   19.9192   26.2317 H   0  0  0  0  0  0  0  0  0  0  0  0
   20.0525   18.5424   27.2189 N   0  3  0  0  0  0  0  0  0  0  0  0
   19.7220   18.7700   28.1630 H   0  0  0  0  0  0  0  0  0  0  0  0
   21.0443   18.2959   27.3004 H   0  0  0  0  0  0  0  0  0  0  0  0
   19.5538   17.6979   26.9222 H   0  0  0  0  0  0  0  0  0  0  0  0
  1  2  1  0  0  0  0
  1  3  1  0  0  0  0
  1  4  1  0  0  0  0
  1  5  1  0  0  0  0
  5  6  1  0  0  0  0
  5  7  1  0  0  0  0
  5  8  1  0  0  0  0
  8  9  1  0  0  0  0
  8 10  1  0  0  0  0
  8 11  1  0  0  0  0
 11 12  1  0  0  0  0
 11 13  1  0  0  0  0
 11 14  1  0  0  0  0
 14 15  1  0  0  0  0
 14 16  1  0  0  0  0
 14 17  1  0  0  0  0
 17 18  1  0  0  0  0
 17 19  1  0  0  0  0
 17 20  1  0  0  0  0
 20 21  1  0  0  0  0
 20 22  1  0  0  0  0
 20 23  1  0  0  0  0
 23 24  1  0  0  0  0
 23 25  1  0  0  0  0
 23 26  1  0  0  0  0
M  END
> <VM2 Rank>
23

> <Conf_Id>
1087

> <Probability>
1.42

> <Sum Probability>
57.46

> <Delta G>
0.973

> <G>
49.234

> <E>
16.700

> <-TS>
32.534

> <U+W>
-4.762

> <U>
48.582

> <W>
-53.345

> <W(PB)>
-55.664

> <W(SA)>
2.319

> <Valence>
2.825

> <Coulomb>
44.916

> <VdW>
0.842

> <VdW6>
-6.929

> <VdW12>
7.771

> <Bond>
0.195

> <Angle>
0.721

> <Pdih>
1.909

> <Idih>
0.000

> <Tether>
0.000

$$$$
VeraChem MOL file


 26 25  0  0  0  0  0  0  0  0999 V2000     
   19.3557   19.3204   19.2239 C   0  0  0  0  0  0  0  0  0  0  0  0
   19.4851   20.4105   19.2155 H   0  0  0  0  0  0  0  0  0  0  0  0
   19.5758   18.9471   18.2153 H   0  0  0  0  0  0  0  0  0  0  0  0
   18.3018   19.1028   19.4412 H   0  0  0  0  0  0  0  0  0  0  0  0
   20.2847   18.6595   20.2643 C   0  0  0  0  0  0  0  0  0  0  0  0
   21.3315   18.8657   20.0005 H   0  0  0  0  0  0  0  0  0  0  0  0
   20.1571   17.5686   20.2263 H   0  0  0  0  0  0  0  0  0  0  0  0
   19.9963   19.1685   21.6941 C   0  0  0  0  0  0  0  0  0  0  0  0
   20.1274   20.2589   21.7274 H   0  0  0  0  0  0  0  0  0  0  0  0
   18.9461   18.9650   21.9404 H   0  0  0  0  0  0  0  0  0  0  0  0
   20.9248   18.5031   22.7385 C   0  0  0  0  0  0  0  0  0  0  0  0
   21.9695   18.6487   22.4306 H   0  0  0  0  0  0  0  0  0  0  0  0
   20.7549   17.4175   22.7478 H   0  0  0  0  0  0  0  0  0  0  0  0
   20.7543   19.0671   24.1707 C   0  0  0  0  0  0  0  0  0  0  0  0
   21.5386   18.6321   24.8042 H   0  0  0  0  0  0  0  0  0  0  0  0
   20.9306   20.1517   24.1622 H   0  0  0  0  0  0  0  0  0  0  0  0
   19.3668   18.7687   24.7926 C   0  0  0  0  0  0  0  0  0  0  0  0
   19.1725   17.6881   24.7794 H   0  0  0  0  0  0  0  0  0  0  0  0
   18.5800   19.2374   24.1888 H   0  0  0  0  0  0  0  0  0  0  0  0
   19.2362   19.2968   26.2344 C   0  0  0  0  0  0  0  0  0  0  0  0
   19.4482   20.3692   26.2543 H   0  0  0  0  0  0  0  0  0  0  0  0
   18.2112   19.1456   26.5837 H   0  0  0  0  0  0  0  0  0  0  0  0
   20.1622   18.6149   27.2226 N   0  3  0  0  0  0  0  0  0  0  0  0
   21.1474   18.7495   26.9754 H   0  0  0  0  0  0  0  0  0  0  0  0
   19.9956   17.6042   27.2655 H   0  0  0  0  0  0  0  0  0  0  0  0
   20.0390   18.9794   28.1735 H   0  0  0  0  0  0  0  0  0  0  0  0
  1  2  1  0  0  0  0
  1  3  1  0  0  0  0
  1  4  1  0  0  0  0
  1  5  1  0  0  0  0
  5  6  1  0  0  0  0
  5  7  1  0  0  0  0
  5  8  1  0  0  0  0
  8  9  1  0  0  0  0
  8 10  1  0  0  0  0
  8 11  1  0  0  0  0
 11 12  1  0  0  0  0
 11 13  1  0  0  0  0
 11 14  1  0  0  0  0
 14 15  1  0  0  0  0
 14 16  1  0  0  0  0
 14 17  1  0  0  0  0
 17 18  1  0  0  0  0
 17 19  1  0  0  0  0
 17 20  1  0  0  0  0
 20 21  1  0  0  0  0
 20 22  1  0  0  0  0
 20 23  1  0  0  0  0
 23 24  1  0  0  0  0
 23 25  1  0  0  0  0
 23 26  1  0  0  0  0
M  END
> <VM2 Rank>
24

> <Conf_Id>
1095

> <Probability>
1.38

> <Sum Probability>
58.84

> <Delta G>
0.990

> <G>
49.251

> <E>
16.717

> <-TS>
32.534

> <U+W>
-4.745

> <U>
48.583

> <W>
-53.328

> <W(PB)>
-55.653

> <W(SA)>
2.326

> <Valence>
2.825

> <Coulomb>
44.916

> <VdW>
0.842

> <VdW6>
-6.929

> <VdW12>
7.771

> <Bond>
0.195

> <Angle>
0.721

> <Pdih>
1.909

> <Idih>
0.000

> <Tether>
0.000

$$$$
VeraChem MOL file


 26 25  0  0  0  0  0  0  0  0999 V2000     
   19.1170   18.6755   19.4175 C   0  0  0  0  0  0  0  0  0  0  0  0
   18.5578   19.6182   19.3565 H   0  0  0  0  0  0  0  0  0  0  0  0
   19.9550   18.7285   18.7102 H   0  0  0  0  0  0  0  0  0  0  0  0
   18.4509   17.8667   19.0901 H   0  0  0  0  0  0  0  0  0  0  0  0
   19.6185   18.4204   20.8547 C   0  0  0  0  0  0  0  0  0  0  0  0
   20.1476   17.4579   20.8902 H   0  0  0  0  0  0  0  0  0  0  0  0
   18.7519   18.3328   21.5233 H   0  0  0  0  0  0  0  0  0  0  0  0
   20.5566   19.5507   21.3401 C   0  0  0  0  0  0  0  0  0  0  0  0
   21.3712   19.6745   20.6131 H   0  0  0  0  0  0  0  0  0  0  0  0
   20.0107   20.5041   21.3559 H   0  0  0  0  0  0  0  0  0  0  0  0
   21.1793   19.2857   22.7329 C   0  0  0  0  0  0  0  0  0  0  0  0
   21.9171   20.0735   22.9384 H   0  0  0  0  0  0  0  0  0  0  0  0
   21.7368   18.3391   22.7123 H   0  0  0  0  0  0  0  0  0  0  0  0
   20.1409   19.2557   23.8802 C   0  0  0  0  0  0  0  0  0  0  0  0
   19.5504   20.1823   23.8649 H   0  0  0  0  0  0  0  0  0  0  0  0
   19.4402   18.4263   23.7229 H   0  0  0  0  0  0  0  0  0  0  0  0
   20.8197   19.1011   25.2619 C   0  0  0  0  0  0  0  0  0  0  0  0
   21.5432   19.9147   25.4051 H   0  0  0  0  0  0  0  0  0  0  0  0
   21.3910   18.1639   25.2977 H   0  0  0  0  0  0  0  0  0  0  0  0
   19.8127   19.1350   26.4278 C   0  0  0  0  0  0  0  0  0  0  0  0
   20.3557   19.1093   27.3765 H   0  0  0  0  0  0  0  0  0  0  0  0
   19.2367   20.0635   26.3899 H   0  0  0  0  0  0  0  0  0  0  0  0
   18.8364   17.9750   26.4259 N   0  3  0  0  0  0  0  0  0  0  0  0
   18.1905   18.0200   27.2216 H   0  0  0  0  0  0  0  0  0  0  0  0
   19.3183   17.0718   26.4824 H   0  0  0  0  0  0  0  0  0  0  0  0
   18.2645   17.9612   25.5759 H   0  0  0  0  0  0  0  0  0  0  0  0
  1  2  1  0  0  0  0
  1  3  1  0  0  0  0
  1  4  1  0  0  0  0
  1  5  1  0  0  0  0
  5  6  1  0  0  0  0
  5  7  1  0  0  0  0
  5  8  1  0  0  0  0
  8  9  1  0  0  0  0
  8 10  1  0  0  0  0
  8 11  1  0  0  0  0
 11 12  1  0  0  0  0
 11 13  1  0  0  0  0
 11 14  1  0  0  0  0
 14 15  1  0  0  0  0
 14 16  1  0  0  0  0
 14 17  1  0  0  0  0
 17 18  1  0  0  0  0
 17 19  1  0  0  0  0
 17 20  1  0  0  0  0
 20 21  1  0  0  0  0
 20 22  1  0  0  0  0
 20 23  1  0  0  0  0
 23 24  1  0  0  0  0
 23 25  1  0  0  0  0
 23 26  1  0  0  0  0
M  END
> <VM2 Rank>
25

> <Conf_Id>
1451

> <Probability>
1.28

> <Sum Probability>
60.12

> <Delta G>
1.038

> <G>
49.299

> <E>
16.750

> <-TS>
32.549

> <U+W>
-4.712

> <U>
48.944

> <W>
-53.656

> <W(PB)>
-55.990

> <W(SA)>
2.334

> <Valence>
2.803

> <Coulomb>
45.335

> <VdW>
0.807

> <VdW6>
-6.961

> <VdW12>
7.768

> <Bond>
0.189

> <Angle>
0.696

> <Pdih>
1.917

> <Idih>
0.000

> <Tether>
0.000

$$$$
VeraChem MOL file


 26 25  0  0  0  0  0  0  0  0999 V2000     
   21.0500   20.0675   20.1774 C   0  0  0  0  0  0  0  0  0  0  0  0
   21.7161   20.1310   21.0467 H   0  0  0  0  0  0  0  0  0  0  0  0
   21.6741   20.1450   19.2777 H   0  0  0  0  0  0  0  0  0  0  0  0
   20.3771   20.9347   20.1948 H   0  0  0  0  0  0  0  0  0  0  0  0
   20.2513   18.7443   20.1690 C   0  0  0  0  0  0  0  0  0  0  0  0
   20.9462   17.8930   20.1835 H   0  0  0  0  0  0  0  0  0  0  0  0
   19.6965   18.6720   19.2230 H   0  0  0  0  0  0  0  0  0  0  0  0
   19.2492   18.6222   21.3423 C   0  0  0  0  0  0  0  0  0  0  0  0
   18.5441   19.4643   21.3116 H   0  0  0  0  0  0  0  0  0  0  0  0
   18.6508   17.7125   21.1957 H   0  0  0  0  0  0  0  0  0  0  0  0
   19.9297   18.5618   22.7310 C   0  0  0  0  0  0  0  0  0  0  0  0
   20.4769   19.4953   22.9125 H   0  0  0  0  0  0  0  0  0  0  0  0
   20.6693   17.7494   22.7410 H   0  0  0  0  0  0  0  0  0  0  0  0
   18.8993   18.3364   23.8636 C   0  0  0  0  0  0  0  0  0  0  0  0
   18.1748   19.1625   23.8753 H   0  0  0  0  0  0  0  0  0  0  0  0
   18.3256   17.4230   23.6541 H   0  0  0  0  0  0  0  0  0  0  0  0
   19.5512   18.2020   25.2600 C   0  0  0  0  0  0  0  0  0  0  0  0
   20.2586   17.3621   25.2578 H   0  0  0  0  0  0  0  0  0  0  0  0
   18.7727   17.9555   25.9942 H   0  0  0  0  0  0  0  0  0  0  0  0
   20.2741   19.4869   25.7059 C   0  0  0  0  0  0  0  0  0  0  0  0
   21.0819   19.7190   25.0071 H   0  0  0  0  0  0  0  0  0  0  0  0
   19.5698   20.3232   25.7087 H   0  0  0  0  0  0  0  0  0  0  0  0
   20.8762   19.3777   27.0919 N   0  3  0  0  0  0  0  0  0  0  0  0
   20.1636   19.1875   27.8040 H   0  0  0  0  0  0  0  0  0  0  0  0
   21.3523   20.2429   27.3698 H   0  0  0  0  0  0  0  0  0  0  0  0
   21.5689   18.6241   27.1493 H   0  0  0  0  0  0  0  0  0  0  0  0
  1  2  1  0  0  0  0
  1  3  1  0  0  0  0
  1  4  1  0  0  0  0
  1  5  1  0  0  0  0
  5  6  1  0  0  0  0
  5  7  1  0  0  0  0
  5  8  1  0  0  0  0
  8  9  1  0  0  0  0
  8 10  1  0  0  0  0
  8 11  1  0  0  0  0
 11 12  1  0  0  0  0
 11 13  1  0  0  0  0
 11 14  1  0  0  0  0
 14 15  1  0  0  0  0
 14 16  1  0  0  0  0
 14 17  1  0  0  0  0
 17 18  1  0  0  0  0
 17 19  1  0  0  0  0
 17 20  1  0  0  0  0
 20 21  1  0  0  0  0
 20 22  1  0  0  0  0
 20 23  1  0  0  0  0
 23 24  1  0  0  0  0
 23 25  1  0  0  0  0
 23 26  1  0  0  0  0
M  END
> <VM2 Rank>
26

> <Conf_Id>
762

> <Probability>
1.25

> <Sum Probability>
61.37

> <Delta G>
1.052

> <G>
49.313

> <E>
16.753

> <-TS>
32.561

> <U+W>
-4.709

> <U>
48.723

> <W>
-53.433

> <W(PB)>
-55.777

> <W(SA)>
2.344

> <Valence>
2.962

> <Coulomb>
44.993

> <VdW>
0.768

> <VdW6>
-7.008

> <VdW12>
7.776

> <Bond>
0.188

> <Angle>
0.756

> <Pdih>
2.018

> <Idih>
0.000

> <Tether>
0.000

$$$$
VeraChem MOL file


 26 25  0  0  0  0  0  0  0  0999 V2000     
   18.8539   18.5879   19.7364 C   0  0  0  0  0  0  0  0  0  0  0  0
   18.7035   19.6363   19.4475 H   0  0  0  0  0  0  0  0  0  0  0  0
   18.9607   17.9971   18.8174 H   0  0  0  0  0  0  0  0  0  0  0  0
   17.9500   18.2432   20.2555 H   0  0  0  0  0  0  0  0  0  0  0  0
   20.1013   18.4328   20.6320 C   0  0  0  0  0  0  0  0  0  0  0  0
   20.9924   18.7525   20.0738 H   0  0  0  0  0  0  0  0  0  0  0  0
   20.2445   17.3710   20.8770 H   0  0  0  0  0  0  0  0  0  0  0  0
   19.9770   19.2558   21.9333 C   0  0  0  0  0  0  0  0  0  0  0  0
   19.8363   20.3165   21.6839 H   0  0  0  0  0  0  0  0  0  0  0  0
   19.0789   18.9330   22.4761 H   0  0  0  0  0  0  0  0  0  0  0  0
   21.2249   19.0971   22.8347 C   0  0  0  0  0  0  0  0  0  0  0  0
   22.1210   19.3530   22.2526 H   0  0  0  0  0  0  0  0  0  0  0  0
   21.3424   18.0439   23.1228 H   0  0  0  0  0  0  0  0  0  0  0  0
   21.1939   19.9928   24.1002 C   0  0  0  0  0  0  0  0  0  0  0  0
   22.1309   19.8492   24.6560 H   0  0  0  0  0  0  0  0  0  0  0  0
   21.1832   21.0481   23.7943 H   0  0  0  0  0  0  0  0  0  0  0  0
   20.0012   19.7340   25.0542 C   0  0  0  0  0  0  0  0  0  0  0  0
   19.0590   20.0037   24.5604 H   0  0  0  0  0  0  0  0  0  0  0  0
   20.0933   20.3983   25.9237 H   0  0  0  0  0  0  0  0  0  0  0  0
   19.9334   18.2745   25.5409 C   0  0  0  0  0  0  0  0  0  0  0  0
   19.7998   17.6065   24.6860 H   0  0  0  0  0  0  0  0  0  0  0  0
   20.8683   18.0101   26.0424 H   0  0  0  0  0  0  0  0  0  0  0  0
   18.7955   18.0241   26.5092 N   0  3  0  0  0  0  0  0  0  0  0  0
   18.8763   18.6033   27.3513 H   0  0  0  0  0  0  0  0  0  0  0  0
   18.7683   17.0471   26.8207 H   0  0  0  0  0  0  0  0  0  0  0  0
   17.8833   18.2289   26.0884 H   0  0  0  0  0  0  0  0  0  0  0  0
  1  2  1  0  0  0  0
  1  3  1  0  0  0  0
  1  4  1  0  0  0  0
  1  5  1  0  0  0  0
  5  6  1  0  0  0  0
  5  7  1  0  0  0  0
  5  8  1  0  0  0  0
  8  9  1  0  0  0  0
  8 10  1  0  0  0  0
  8 11  1  0  0  0  0
 11 12  1  0  0  0  0
 11 13  1  0  0  0  0
 11 14  1  0  0  0  0
 14 15  1  0  0  0  0
 14 16  1  0  0  0  0
 14 17  1  0  0  0  0
 17 18  1  0  0  0  0
 17 19  1  0  0  0  0
 17 20  1  0  0  0  0
 20 21  1  0  0  0  0
 20 22  1  0  0  0  0
 20 23  1  0  0  0  0
 23 24  1  0  0  0  0
 23 25  1  0  0  0  0
 23 26  1  0  0  0  0
M  END
> <VM2 Rank>
27

> <Conf_Id>
731

> <Probability>
1.20

> <Sum Probability>
62.56

> <Delta G>
1.077

> <G>
49.338

> <E>
16.648

> <-TS>
32.690

> <U+W>
-4.814

> <U>
48.956

> <W>
-53.770

> <W(PB)>
-56.093

> <W(SA)>
2.323

> <Valence>
2.916

> <Coulomb>
45.446

> <VdW>
0.595

> <VdW6>
-7.361

> <VdW12>
7.956

> <Bond>
0.196

> <Angle>
0.889

> <Pdih>
1.830

> <Idih>
0.000

> <Tether>
0.000

$$$$
VeraChem MOL file


 26 25  0  0  0  0  0  0  0  0999 V2000     
   20.1286   17.8133   19.8417 C   0  0  0  0  0  0  0  0  0  0  0  0
   19.0726   17.9072   19.5568 H   0  0  0  0  0  0  0  0  0  0  0  0
   20.6775   17.4273   18.9730 H   0  0  0  0  0  0  0  0  0  0  0  0
   20.2047   17.0639   20.6391 H   0  0  0  0  0  0  0  0  0  0  0  0
   20.7078   19.1758   20.2855 C   0  0  0  0  0  0  0  0  0  0  0  0
   20.7216   19.8533   19.4203 H   0  0  0  0  0  0  0  0  0  0  0  0
   21.7551   19.0494   20.5935 H   0  0  0  0  0  0  0  0  0  0  0  0
   19.9034   19.8441   21.4266 C   0  0  0  0  0  0  0  0  0  0  0  0
   20.3155   20.8474   21.6024 H   0  0  0  0  0  0  0  0  0  0  0  0
   18.8628   19.9893   21.1051 H   0  0  0  0  0  0  0  0  0  0  0  0
   19.9342   19.0461   22.7522 C   0  0  0  0  0  0  0  0  0  0  0  0
   20.9783   18.8555   23.0338 H   0  0  0  0  0  0  0  0  0  0  0  0
   19.4571   18.0676   22.6095 H   0  0  0  0  0  0  0  0  0  0  0  0
   19.2089   19.8019   23.8914 C   0  0  0  0  0  0  0  0  0  0  0  0
   19.7031   20.7669   24.0702 H   0  0  0  0  0  0  0  0  0  0  0  0
   18.1822   20.0325   23.5749 H   0  0  0  0  0  0  0  0  0  0  0  0
   19.1522   18.9995   25.2126 C   0  0  0  0  0  0  0  0  0  0  0  0
   18.6346   18.0458   25.0433 H   0  0  0  0  0  0  0  0  0  0  0  0
   18.5517   19.5578   25.9431 H   0  0  0  0  0  0  0  0  0  0  0  0
   20.5478   18.7328   25.8071 C   0  0  0  0  0  0  0  0  0  0  0  0
   21.1412   18.1390   25.1071 H   0  0  0  0  0  0  0  0  0  0  0  0
   21.0629   19.6822   25.9767 H   0  0  0  0  0  0  0  0  0  0  0  0
   20.4982   17.9856   27.1241 N   0  3  0  0  0  0  0  0  0  0  0  0
   21.4367   17.8183   27.5029 H   0  0  0  0  0  0  0  0  0  0  0  0
   20.0478   17.0697   27.0271 H   0  0  0  0  0  0  0  0  0  0  0  0
   19.9765   18.5043   27.8382 H   0  0  0  0  0  0  0  0  0  0  0  0
  1  2  1  0  0  0  0
  1  3  1  0  0  0  0
  1  4  1  0  0  0  0
  1  5  1  0  0  0  0
  5  6  1  0  0  0  0
  5  7  1  0  0  0  0
  5  8  1  0  0  0  0
  8  9  1  0  0  0  0
  8 10  1  0  0  0  0
  8 11  1  0  0  0  0
 11 12  1  0  0  0  0
 11 13  1  0  0  0  0
 11 14  1  0  0  0  0
 14 15  1  0  0  0  0
 14 16  1  0  0  0  0
 14 17  1  0  0  0  0
 17 18  1  0  0  0  0
 17 19  1  0  0  0  0
 17 20  1  0  0  0  0
 20 21  1  0  0  0  0
 20 22  1  0  0  0  0
 20 23  1  0  0  0  0
 23 24  1  0  0  0  0
 23 25  1  0  0  0  0
 23 26  1  0  0  0  0
M  END
> <VM2 Rank>
28

> <Conf_Id>
1258

> <Probability>
1.19

> <Sum Probability>
63.75

> <Delta G>
1.080

> <G>
49.341

> <E>
16.778

> <-TS>
32.563

> <U+W>
-4.684

> <U>
48.658

> <W>
-53.342

> <W(PB)>
-55.670

> <W(SA)>
2.328

> <Valence>
2.963

> <Coulomb>
44.927

> <VdW>
0.768

> <VdW6>
-6.995

> <VdW12>
7.762

> <Bond>
0.186

> <Angle>
0.758

> <Pdih>
2.019

> <Idih>
0.000

> <Tether>
0.000

$$$$
VeraChem MOL file


 26 25  0  0  0  0  0  0  0  0999 V2000     
   20.9387   19.9644   19.8070 C   0  0  0  0  0  0  0  0  0  0  0  0
   21.5858   20.6428   20.3782 H   0  0  0  0  0  0  0  0  0  0  0  0
   21.4824   19.6623   18.9024 H   0  0  0  0  0  0  0  0  0  0  0  0
   20.0480   20.5245   19.4936 H   0  0  0  0  0  0  0  0  0  0  0  0
   20.5502   18.7295   20.6472 C   0  0  0  0  0  0  0  0  0  0  0  0
   21.4580   18.1721   20.9175 H   0  0  0  0  0  0  0  0  0  0  0  0
   19.9330   18.0541   20.0382 H   0  0  0  0  0  0  0  0  0  0  0  0
   19.7822   19.1271   21.9272 C   0  0  0  0  0  0  0  0  0  0  0  0
   20.4056   19.8084   22.5210 H   0  0  0  0  0  0  0  0  0  0  0  0
   18.8744   19.6816   21.6523 H   0  0  0  0  0  0  0  0  0  0  0  0
   19.3970   17.8902   22.7736 C   0  0  0  0  0  0  0  0  0  0  0  0
   20.3053   17.3588   23.0880 H   0  0  0  0  0  0  0  0  0  0  0  0
   18.8378   17.1855   22.1426 H   0  0  0  0  0  0  0  0  0  0  0  0
   18.5273   18.2318   24.0112 C   0  0  0  0  0  0  0  0  0  0  0  0
   17.5759   18.6659   23.6739 H   0  0  0  0  0  0  0  0  0  0  0  0
   18.2665   17.2973   24.5269 H   0  0  0  0  0  0  0  0  0  0  0  0
   19.1879   19.1968   25.0270 C   0  0  0  0  0  0  0  0  0  0  0  0
   18.5012   19.3464   25.8707 H   0  0  0  0  0  0  0  0  0  0  0  0
   19.3315   20.1840   24.5697 H   0  0  0  0  0  0  0  0  0  0  0  0
   20.5334   18.6707   25.5604 C   0  0  0  0  0  0  0  0  0  0  0  0
   20.3874   17.6922   26.0258 H   0  0  0  0  0  0  0  0  0  0  0  0
   21.2390   18.5572   24.7333 H   0  0  0  0  0  0  0  0  0  0  0  0
   21.1643   19.5885   26.5875 N   0  3  0  0  0  0  0  0  0  0  0  0
   21.3524   20.5202   26.2033 H   0  0  0  0  0  0  0  0  0  0  0  0
   22.0586   19.2200   26.9292 H   0  0  0  0  0  0  0  0  0  0  0  0
   20.5616   19.7159   27.4070 H   0  0  0  0  0  0  0  0  0  0  0  0
  1  2  1  0  0  0  0
  1  3  1  0  0  0  0
  1  4  1  0  0  0  0
  1  5  1  0  0  0  0
  5  6  1  0  0  0  0
  5  7  1  0  0  0  0
  5  8  1  0  0  0  0
  8  9  1  0  0  0  0
  8 10  1  0  0  0  0
  8 11  1  0  0  0  0
 11 12  1  0  0  0  0
 11 13  1  0  0  0  0
 11 14  1  0  0  0  0
 14 15  1  0  0  0  0
 14 16  1  0  0  0  0
 14 17  1  0  0  0  0
 17 18  1  0  0  0  0
 17 19  1  0  0  0  0
 17 20  1  0  0  0  0
 20 21  1  0  0  0  0
 20 22  1  0  0  0  0
 20 23  1  0  0  0  0
 23 24  1  0  0  0  0
 23 25  1  0  0  0  0
 23 26  1  0  0  0  0
M  END
> <VM2 Rank>
29

> <Conf_Id>
914

> <Probability>
1.18

> <Sum Probability>
64.94

> <Delta G>
1.084

> <G>
49.345

> <E>
16.654

> <-TS>
32.691

> <U+W>
-4.808

> <U>
48.957

> <W>
-53.765

> <W(PB)>
-56.083

> <W(SA)>
2.317

> <Valence>
2.916

> <Coulomb>
45.447

> <VdW>
0.595

> <VdW6>
-7.363

> <VdW12>
7.958

> <Bond>
0.196

> <Angle>
0.889

> <Pdih>
1.830

> <Idih>
0.000

> <Tether>
0.000

$$$$
VeraChem MOL file


 26 25  0  0  0  0  0  0  0  0999 V2000     
   21.1445   18.4823   19.8756 C   0  0  0  0  0  0  0  0  0  0  0  0
   21.3231   17.8523   18.9947 H   0  0  0  0  0  0  0  0  0  0  0  0
   21.4875   19.4975   19.6374 H   0  0  0  0  0  0  0  0  0  0  0  0
   21.7653   18.0916   20.6913 H   0  0  0  0  0  0  0  0  0  0  0  0
   19.6450   18.4758   20.2500 C   0  0  0  0  0  0  0  0  0  0  0  0
   19.3341   17.4550   20.5128 H   0  0  0  0  0  0  0  0  0  0  0  0
   19.0578   18.7576   19.3648 H   0  0  0  0  0  0  0  0  0  0  0  0
   19.2952   19.4436   21.4063 C   0  0  0  0  0  0  0  0  0  0  0  0
   19.5868   20.4661   21.1292 H   0  0  0  0  0  0  0  0  0  0  0  0
   18.2037   19.4567   21.5318 H   0  0  0  0  0  0  0  0  0  0  0  0
   19.9539   19.0592   22.7528 C   0  0  0  0  0  0  0  0  0  0  0  0
   21.0467   19.1147   22.6627 H   0  0  0  0  0  0  0  0  0  0  0  0
   19.7046   18.0167   22.9913 H   0  0  0  0  0  0  0  0  0  0  0  0
   19.4926   19.9889   23.9009 C   0  0  0  0  0  0  0  0  0  0  0  0
   19.6999   21.0323   23.6256 H   0  0  0  0  0  0  0  0  0  0  0  0
   18.4037   19.9111   24.0268 H   0  0  0  0  0  0  0  0  0  0  0  0
   20.1901   19.6831   25.2473 C   0  0  0  0  0  0  0  0  0  0  0  0
   19.8798   20.4326   25.9875 H   0  0  0  0  0  0  0  0  0  0  0  0
   21.2772   19.7866   25.1316 H   0  0  0  0  0  0  0  0  0  0  0  0
   19.8578   18.2782   25.7840 C   0  0  0  0  0  0  0  0  0  0  0  0
   18.7755   18.1754   25.9003 H   0  0  0  0  0  0  0  0  0  0  0  0
   20.2018   17.5202   25.0756 H   0  0  0  0  0  0  0  0  0  0  0  0
   20.5019   17.9880   27.1242 N   0  3  0  0  0  0  0  0  0  0  0  0
   20.1979   18.6500   27.8456 H   0  0  0  0  0  0  0  0  0  0  0  0
   21.5247   18.0424   27.0764 H   0  0  0  0  0  0  0  0  0  0  0  0
   20.2684   17.0486   27.4638 H   0  0  0  0  0  0  0  0  0  0  0  0
  1  2  1  0  0  0  0
  1  3  1  0  0  0  0
  1  4  1  0  0  0  0
  1  5  1  0  0  0  0
  5  6  1  0  0  0  0
  5  7  1  0  0  0  0
  5  8  1  0  0  0  0
  8  9  1  0  0  0  0
  8 10  1  0  0  0  0
  8 11  1  0  0  0  0
 11 12  1  0  0  0  0
 11 13  1  0  0  0  0
 11 14  1  0  0  0  0
 14 15  1  0  0  0  0
 14 16  1  0  0  0  0
 14 17  1  0  0  0  0
 17 18  1  0  0  0  0
 17 19  1  0  0  0  0
 17 20  1  0  0  0  0
 20 21  1  0  0  0  0
 20 22  1  0  0  0  0
 20 23  1  0  0  0  0
 23 24  1  0  0  0  0
 23 25  1  0  0  0  0
 23 26  1  0  0  0  0
M  END
> <VM2 Rank>
30

> <Conf_Id>
1358

> <Probability>
1.12

> <Sum Probability>
66.06

> <Delta G>
1.114

> <G>
49.376

> <E>
16.812

> <-TS>
32.563

> <U+W>
-4.650

> <U>
48.658

> <W>
-53.308

> <W(PB)>
-55.634

> <W(SA)>
2.326

> <Valence>
2.963

> <Coulomb>
44.927

> <VdW>
0.768

> <VdW6>
-6.995

> <VdW12>
7.762

> <Bond>
0.186

> <Angle>
0.758

> <Pdih>
2.019

> <Idih>
0.000

> <Tether>
0.000

$$$$
VeraChem MOL file


 26 25  0  0  0  0  0  0  0  0999 V2000     
   18.6972   18.5162   20.0986 C   0  0  0  0  0  0  0  0  0  0  0  0
   18.1646   19.4758   20.1203 H   0  0  0  0  0  0  0  0  0  0  0  0
   18.4228   18.0010   19.1690 H   0  0  0  0  0  0  0  0  0  0  0  0
   18.3364   17.9031   20.9337 H   0  0  0  0  0  0  0  0  0  0  0  0
   20.2267   18.7277   20.1682 C   0  0  0  0  0  0  0  0  0  0  0  0
   20.5554   19.2373   19.2517 H   0  0  0  0  0  0  0  0  0  0  0  0
   20.7346   17.7531   20.1768 H   0  0  0  0  0  0  0  0  0  0  0  0
   20.6779   19.5640   21.3900 C   0  0  0  0  0  0  0  0  0  0  0  0
   21.7554   19.7592   21.2995 H   0  0  0  0  0  0  0  0  0  0  0  0
   20.1831   20.5448   21.3660 H   0  0  0  0  0  0  0  0  0  0  0  0
   20.4012   18.8729   22.7468 C   0  0  0  0  0  0  0  0  0  0  0  0
   20.8564   17.8729   22.7477 H   0  0  0  0  0  0  0  0  0  0  0  0
   19.3204   18.7328   22.8738 H   0  0  0  0  0  0  0  0  0  0  0  0
   20.9600   19.6959   23.9325 C   0  0  0  0  0  0  0  0  0  0  0  0
   22.0339   19.8695   23.7779 H   0  0  0  0  0  0  0  0  0  0  0  0
   20.4849   20.6866   23.9524 H   0  0  0  0  0  0  0  0  0  0  0  0
   20.7626   19.0015   25.3005 C   0  0  0  0  0  0  0  0  0  0  0  0
   21.2603   19.5972   26.0773 H   0  0  0  0  0  0  0  0  0  0  0  0
   21.2569   18.0209   25.2914 H   0  0  0  0  0  0  0  0  0  0  0  0
   19.2779   18.8296   25.6726 C   0  0  0  0  0  0  0  0  0  0  0  0
   18.7857   19.8059   25.6823 H   0  0  0  0  0  0  0  0  0  0  0  0
   18.7804   18.2003   24.9302 H   0  0  0  0  0  0  0  0  0  0  0  0
   19.0775   18.1912   27.0318 N   0  3  0  0  0  0  0  0  0  0  0  0
   18.0831   18.0858   27.2605 H   0  0  0  0  0  0  0  0  0  0  0  0
   19.4985   18.7493   27.7818 H   0  0  0  0  0  0  0  0  0  0  0  0
   19.4957   17.2563   27.0803 H   0  0  0  0  0  0  0  0  0  0  0  0
  1  2  1  0  0  0  0
  1  3  1  0  0  0  0
  1  4  1  0  0  0  0
  1  5  1  0  0  0  0
  5  6  1  0  0  0  0
  5  7  1  0  0  0  0
  5  8  1  0  0  0  0
  8  9  1  0  0  0  0
  8 10  1  0  0  0  0
  8 11  1  0  0  0  0
 11 12  1  0  0  0  0
 11 13  1  0  0  0  0
 11 14  1  0  0  0  0
 14 15  1  0  0  0  0
 14 16  1  0  0  0  0
 14 17  1  0  0  0  0
 17 18  1  0  0  0  0
 17 19  1  0  0  0  0
 17 20  1  0  0  0  0
 20 21  1  0  0  0  0
 20 22  1  0  0  0  0
 20 23  1  0  0  0  0
 23 24  1  0  0  0  0
 23 25  1  0  0  0  0
 23 26  1  0  0  0  0
M  END
> <VM2 Rank>
31

> <Conf_Id>
695

> <Probability>
1.11

> <Sum Probability>
67.17

> <Delta G>
1.121

> <G>
49.382

> <E>
16.822

> <-TS>
32.560

> <U+W>
-4.640

> <U>
48.723

> <W>
-53.363

> <W(PB)>
-55.684

> <W(SA)>
2.321

> <Valence>
2.962

> <Coulomb>
44.993

> <VdW>
0.768

> <VdW6>
-7.008

> <VdW12>
7.776

> <Bond>
0.188

> <Angle>
0.757

> <Pdih>
2.018

> <Idih>
0.000

> <Tether>
0.000

$$$$
VeraChem MOL file


 26 25  0  0  0  0  0  0  0  0999 V2000     
   19.4882   19.0297   19.2183 C   0  0  0  0  0  0  0  0  0  0  0  0
   19.9395   18.1262   18.7880 H   0  0  0  0  0  0  0  0  0  0  0  0
   18.4887   19.1482   18.7800 H   0  0  0  0  0  0  0  0  0  0  0  0
   20.0943   19.8929   18.9139 H   0  0  0  0  0  0  0  0  0  0  0  0
   19.4005   18.9284   20.7559 C   0  0  0  0  0  0  0  0  0  0  0  0
   18.7647   18.0747   21.0290 H   0  0  0  0  0  0  0  0  0  0  0  0
   18.9082   19.8297   21.1446 H   0  0  0  0  0  0  0  0  0  0  0  0
   20.7988   18.7648   21.3971 C   0  0  0  0  0  0  0  0  0  0  0  0
   21.3032   17.9031   20.9383 H   0  0  0  0  0  0  0  0  0  0  0  0
   21.4176   19.6427   21.1657 H   0  0  0  0  0  0  0  0  0  0  0  0
   20.7554   18.5491   22.9298 C   0  0  0  0  0  0  0  0  0  0  0  0
   21.7742   18.3312   23.2788 H   0  0  0  0  0  0  0  0  0  0  0  0
   20.1547   17.6570   23.1522 H   0  0  0  0  0  0  0  0  0  0  0  0
   20.2055   19.7706   23.7090 C   0  0  0  0  0  0  0  0  0  0  0  0
   20.7506   20.6728   23.3990 H   0  0  0  0  0  0  0  0  0  0  0  0
   19.1511   19.9391   23.4531 H   0  0  0  0  0  0  0  0  0  0  0  0
   20.3336   19.6155   25.2425 C   0  0  0  0  0  0  0  0  0  0  0  0
   19.9999   20.5442   25.7242 H   0  0  0  0  0  0  0  0  0  0  0  0
   21.3894   19.4826   25.5135 H   0  0  0  0  0  0  0  0  0  0  0  0
   19.5061   18.4379   25.7910 C   0  0  0  0  0  0  0  0  0  0  0  0
   18.4543   18.5716   25.5241 H   0  0  0  0  0  0  0  0  0  0  0  0
   19.8572   17.5016   25.3496 H   0  0  0  0  0  0  0  0  0  0  0  0
   19.5930   18.3030   27.2975 N   0  3  0  0  0  0  0  0  0  0  0  0
   19.2504   19.1422   27.7766 H   0  0  0  0  0  0  0  0  0  0  0  0
   20.5564   18.1480   27.6122 H   0  0  0  0  0  0  0  0  0  0  0  0
   19.0355   17.5139   27.6423 H   0  0  0  0  0  0  0  0  0  0  0  0
  1  2  1  0  0  0  0
  1  3  1  0  0  0  0
  1  4  1  0  0  0  0
  1  5  1  0  0  0  0
  5  6  1  0  0  0  0
  5  7  1  0  0  0  0
  5  8  1  0  0  0  0
  8  9  1  0  0  0  0
  8 10  1  0  0  0  0
  8 11  1  0  0  0  0
 11 12  1  0  0  0  0
 11 13  1  0  0  0  0
 11 14  1  0  0  0  0
 14 15  1  0  0  0  0
 14 16  1  0  0  0  0
 14 17  1  0  0  0  0
 17 18  1  0  0  0  0
 17 19  1  0  0  0  0
 17 20  1  0  0  0  0
 20 21  1  0  0  0  0
 20 22  1  0  0  0  0
 20 23  1  0  0  0  0
 23 24  1  0  0  0  0
 23 25  1  0  0  0  0
 23 26  1  0  0  0  0
M  END
> <VM2 Rank>
32

> <Conf_Id>
1099

> <Probability>
1.09

> <Sum Probability>
68.26

> <Delta G>
1.131

> <G>
49.392

> <E>
16.830

> <-TS>
32.562

> <U+W>
-4.632

> <U>
48.732

> <W>
-53.364

> <W(PB)>
-55.692

> <W(SA)>
2.328

> <Valence>
2.987

> <Coulomb>
45.003

> <VdW>
0.742

> <VdW6>
-7.035

> <VdW12>
7.777

> <Bond>
0.190

> <Angle>
0.753

> <Pdih>
2.043

> <Idih>
0.000

> <Tether>
0.000

$$$$
VeraChem MOL file


 26 25  0  0  0  0  0  0  0  0999 V2000     
   19.8612   19.0878   19.0804 C   0  0  0  0  0  0  0  0  0  0  0  0
   20.7485   19.6375   18.7401 H   0  0  0  0  0  0  0  0  0  0  0  0
   19.6941   18.2549   18.3852 H   0  0  0  0  0  0  0  0  0  0  0  0
   18.9961   19.7605   19.0147 H   0  0  0  0  0  0  0  0  0  0  0  0
   20.0495   18.5660   20.5208 C   0  0  0  0  0  0  0  0  0  0  0  0
   20.9030   17.8742   20.5486 H   0  0  0  0  0  0  0  0  0  0  0  0
   19.1612   17.9883   20.8083 H   0  0  0  0  0  0  0  0  0  0  0  0
   20.2824   19.7238   21.5203 C   0  0  0  0  0  0  0  0  0  0  0  0
   21.1235   20.3355   21.1658 H   0  0  0  0  0  0  0  0  0  0  0  0
   19.4049   20.3850   21.5329 H   0  0  0  0  0  0  0  0  0  0  0  0
   20.5958   19.2491   22.9607 C   0  0  0  0  0  0  0  0  0  0  0  0
   20.8790   20.1286   23.5539 H   0  0  0  0  0  0  0  0  0  0  0  0
   21.4750   18.5903   22.9468 H   0  0  0  0  0  0  0  0  0  0  0  0
   19.4093   18.5241   23.6455 C   0  0  0  0  0  0  0  0  0  0  0  0
   18.5232   19.1738   23.6387 H   0  0  0  0  0  0  0  0  0  0  0  0
   19.1429   17.6276   23.0710 H   0  0  0  0  0  0  0  0  0  0  0  0
   19.7199   18.0914   25.0980 C   0  0  0  0  0  0  0  0  0  0  0  0
   20.6003   17.4351   25.1074 H   0  0  0  0  0  0  0  0  0  0  0  0
   18.8797   17.4955   25.4787 H   0  0  0  0  0  0  0  0  0  0  0  0
   19.9539   19.2870   26.0406 C   0  0  0  0  0  0  0  0  0  0  0  0
   20.8181   19.8636   25.7011 H   0  0  0  0  0  0  0  0  0  0  0  0
   19.0776   19.9407   26.0302 H   0  0  0  0  0  0  0  0  0  0  0  0
   20.2090   18.8698   27.4746 N   0  3  0  0  0  0  0  0  0  0  0  0
   20.3622   19.6795   28.0856 H   0  0  0  0  0  0  0  0  0  0  0  0
   21.0384   18.2726   27.5570 H   0  0  0  0  0  0  0  0  0  0  0  0
   19.4197   18.3457   27.8663 H   0  0  0  0  0  0  0  0  0  0  0  0
  1  2  1  0  0  0  0
  1  3  1  0  0  0  0
  1  4  1  0  0  0  0
  1  5  1  0  0  0  0
  5  6  1  0  0  0  0
  5  7  1  0  0  0  0
  5  8  1  0  0  0  0
  8  9  1  0  0  0  0
  8 10  1  0  0  0  0
  8 11  1  0  0  0  0
 11 12  1  0  0  0  0
 11 13  1  0  0  0  0
 11 14  1  0  0  0  0
 14 15  1  0  0  0  0
 14 16  1  0  0  0  0
 14 17  1  0  0  0  0
 17 18  1  0  0  0  0
 17 19  1  0  0  0  0
 17 20  1  0  0  0  0
 20 21  1  0  0  0  0
 20 22  1  0  0  0  0
 20 23  1  0  0  0  0
 23 24  1  0  0  0  0
 23 25  1  0  0  0  0
 23 26  1  0  0  0  0
M  END
> <VM2 Rank>
33

> <Conf_Id>
1280

> <Probability>
1.07

> <Sum Probability>
69.34

> <Delta G>
1.143

> <G>
49.404

> <E>
16.883

> <-TS>
32.521

> <U+W>
-4.579

> <U>
48.768

> <W>
-53.346

> <W(PB)>
-55.672

> <W(SA)>
2.325

> <Valence>
3.051

> <Coulomb>
44.907

> <VdW>
0.810

> <VdW6>
-6.973

> <VdW12>
7.783

> <Bond>
0.197

> <Angle>
0.815

> <Pdih>
2.039

> <Idih>
0.000

> <Tether>
0.000

$$$$
VeraChem MOL file


 26 25  0  0  0  0  0  0  0  0999 V2000     
   20.3083   19.5708   19.2458 C   0  0  0  0  0  0  0  0  0  0  0  0
   19.2917   19.3630   18.8870 H   0  0  0  0  0  0  0  0  0  0  0  0
   20.6116   20.5492   18.8511 H   0  0  0  0  0  0  0  0  0  0  0  0
   20.9816   18.8138   18.8229 H   0  0  0  0  0  0  0  0  0  0  0  0
   20.3639   19.5643   20.7882 C   0  0  0  0  0  0  0  0  0  0  0  0
   19.7107   20.3594   21.1714 H   0  0  0  0  0  0  0  0  0  0  0  0
   21.3848   19.8040   21.1168 H   0  0  0  0  0  0  0  0  0  0  0  0
   19.9361   18.1954   21.3683 C   0  0  0  0  0  0  0  0  0  0  0  0
   18.8977   17.9797   21.0814 H   0  0  0  0  0  0  0  0  0  0  0  0
   20.5514   17.4069   20.9132 H   0  0  0  0  0  0  0  0  0  0  0  0
   20.0799   18.1033   22.9072 C   0  0  0  0  0  0  0  0  0  0  0  0
   21.1247   18.2969   23.1846 H   0  0  0  0  0  0  0  0  0  0  0  0
   19.8641   17.0708   23.2150 H   0  0  0  0  0  0  0  0  0  0  0  0
   19.1372   19.0657   23.6732 C   0  0  0  0  0  0  0  0  0  0  0  0
   19.4080   20.1085   23.4616 H   0  0  0  0  0  0  0  0  0  0  0  0
   18.1089   18.9298   23.3107 H   0  0  0  0  0  0  0  0  0  0  0  0
   19.1581   18.8399   25.2032 C   0  0  0  0  0  0  0  0  0  0  0  0
   18.8532   17.8093   25.4288 H   0  0  0  0  0  0  0  0  0  0  0  0
   18.4134   19.4975   25.6711 H   0  0  0  0  0  0  0  0  0  0  0  0
   20.5390   19.1193   25.8255 C   0  0  0  0  0  0  0  0  0  0  0  0
   21.2818   18.4414   25.3972 H   0  0  0  0  0  0  0  0  0  0  0  0
   20.8414   20.1464   25.6037 H   0  0  0  0  0  0  0  0  0  0  0  0
   20.5586   18.9402   27.3297 N   0  3  0  0  0  0  0  0  0  0  0  0
   21.4863   19.1308   27.7241 H   0  0  0  0  0  0  0  0  0  0  0  0
   20.3083   17.9845   27.6040 H   0  0  0  0  0  0  0  0  0  0  0  0
   19.9000   19.5709   27.7983 H   0  0  0  0  0  0  0  0  0  0  0  0
  1  2  1  0  0  0  0
  1  3  1  0  0  0  0
  1  4  1  0  0  0  0
  1  5  1  0  0  0  0
  5  6  1  0  0  0  0
  5  7  1  0  0  0  0
  5  8  1  0  0  0  0
  8  9  1  0  0  0  0
  8 10  1  0  0  0  0
  8 11  1  0  0  0  0
 11 12  1  0  0  0  0
 11 13  1  0  0  0  0
 11 14  1  0  0  0  0
 14 15  1  0  0  0  0
 14 16  1  0  0  0  0
 14 17  1  0  0  0  0
 17 18  1  0  0  0  0
 17 19  1  0  0  0  0
 17 20  1  0  0  0  0
 20 21  1  0  0  0  0
 20 22  1  0  0  0  0
 20 23  1  0  0  0  0
 23 24  1  0  0  0  0
 23 25  1  0  0  0  0
 23 26  1  0  0  0  0
M  END
> <VM2 Rank>
34

> <Conf_Id>
1228

> <Probability>
1.03

> <Sum Probability>
70.36

> <Delta G>
1.169

> <G>
49.430

> <E>
16.869

> <-TS>
32.561

> <U+W>
-4.593

> <U>
48.732

> <W>
-53.325

> <W(PB)>
-55.660

> <W(SA)>
2.334

> <Valence>
2.986

> <Coulomb>
45.003

> <VdW>
0.742

> <VdW6>
-7.035

> <VdW12>
7.777

> <Bond>
0.190

> <Angle>
0.753

> <Pdih>
2.043

> <Idih>
0.000

> <Tether>
0.000

$$$$
VeraChem MOL file


 26 25  0  0  0  0  0  0  0  0999 V2000     
   18.7882   18.6804   20.1775 C   0  0  0  0  0  0  0  0  0  0  0  0
   19.1695   17.8622   19.5529 H   0  0  0  0  0  0  0  0  0  0  0  0
   18.3567   18.2461   21.0880 H   0  0  0  0  0  0  0  0  0  0  0  0
   17.9747   19.1717   19.6282 H   0  0  0  0  0  0  0  0  0  0  0  0
   19.9069   19.6937   20.5091 C   0  0  0  0  0  0  0  0  0  0  0  0
   19.5072   20.4906   21.1502 H   0  0  0  0  0  0  0  0  0  0  0  0
   20.2237   20.1871   19.5797 H   0  0  0  0  0  0  0  0  0  0  0  0
   21.1496   19.0454   21.1711 C   0  0  0  0  0  0  0  0  0  0  0  0
   21.6030   18.3410   20.4603 H   0  0  0  0  0  0  0  0  0  0  0  0
   21.9046   19.8245   21.3447 H   0  0  0  0  0  0  0  0  0  0  0  0
   20.8783   18.3007   22.5039 C   0  0  0  0  0  0  0  0  0  0  0  0
   21.8261   17.8732   22.8590 H   0  0  0  0  0  0  0  0  0  0  0  0
   20.2104   17.4474   22.3266 H   0  0  0  0  0  0  0  0  0  0  0  0
   20.2884   19.2073   23.6106 C   0  0  0  0  0  0  0  0  0  0  0  0
   20.9368   20.0830   23.7529 H   0  0  0  0  0  0  0  0  0  0  0  0
   19.3049   19.5847   23.3002 H   0  0  0  0  0  0  0  0  0  0  0  0
   20.1388   18.4537   24.9504 C   0  0  0  0  0  0  0  0  0  0  0  0
   21.1187   18.0808   25.2771 H   0  0  0  0  0  0  0  0  0  0  0  0
   19.4903   17.5783   24.8116 H   0  0  0  0  0  0  0  0  0  0  0  0
   19.5468   19.3609   26.0434 C   0  0  0  0  0  0  0  0  0  0  0  0
   20.1978   20.2259   26.1963 H   0  0  0  0  0  0  0  0  0  0  0  0
   18.5634   19.7215   25.7299 H   0  0  0  0  0  0  0  0  0  0  0  0
   19.3841   18.6569   27.3751 N   0  3  0  0  0  0  0  0  0  0  0  0
   20.2800   18.3165   27.7394 H   0  0  0  0  0  0  0  0  0  0  0  0
   18.7592   17.8470   27.3055 H   0  0  0  0  0  0  0  0  0  0  0  0
   18.9885   19.2786   28.0888 H   0  0  0  0  0  0  0  0  0  0  0  0
  1  2  1  0  0  0  0
  1  3  1  0  0  0  0
  1  4  1  0  0  0  0
  1  5  1  0  0  0  0
  5  6  1  0  0  0  0
  5  7  1  0  0  0  0
  5  8  1  0  0  0  0
  8  9  1  0  0  0  0
  8 10  1  0  0  0  0
  8 11  1  0  0  0  0
 11 12  1  0  0  0  0
 11 13  1  0  0  0  0
 11 14  1  0  0  0  0
 14 15  1  0  0  0  0
 14 16  1  0  0  0  0
 14 17  1  0  0  0  0
 17 18  1  0  0  0  0
 17 19  1  0  0  0  0
 17 20  1  0  0  0  0
 20 21  1  0  0  0  0
 20 22  1  0  0  0  0
 20 23  1  0  0  0  0
 23 24  1  0  0  0  0
 23 25  1  0  0  0  0
 23 26  1  0  0  0  0
M  END
> <VM2 Rank>
35

> <Conf_Id>
76

> <Probability>
0.98

> <Sum Probability>
71.34

> <Delta G>
1.197

> <G>
49.459

> <E>
16.677

> <-TS>
32.782

> <U+W>
-4.785

> <U>
48.494

> <W>
-53.279

> <W(PB)>
-55.569

> <W(SA)>
2.290

> <Valence>
3.118

> <Coulomb>
44.692

> <VdW>
0.684

> <VdW6>
-7.346

> <VdW12>
8.030

> <Bond>
0.208

> <Angle>
1.039

> <Pdih>
1.870

> <Idih>
0.000

> <Tether>
0.000

$$$$
VeraChem MOL file


 26 25  0  0  0  0  0  0  0  0999 V2000     
   20.8590   20.0470   20.2470 C   0  0  0  0  0  0  0  0  0  0  0  0
   21.3847   20.2443   21.1896 H   0  0  0  0  0  0  0  0  0  0  0  0
   21.4902   19.3939   19.6306 H   0  0  0  0  0  0  0  0  0  0  0  0
   20.7522   21.0048   19.7215 H   0  0  0  0  0  0  0  0  0  0  0  0
   19.4739   19.4079   20.4946 C   0  0  0  0  0  0  0  0  0  0  0  0
   18.9396   19.3397   19.5367 H   0  0  0  0  0  0  0  0  0  0  0  0
   18.8685   20.0691   21.1289 H   0  0  0  0  0  0  0  0  0  0  0  0
   19.5512   17.9906   21.1176 C   0  0  0  0  0  0  0  0  0  0  0  0
   18.5313   17.5983   21.2318 H   0  0  0  0  0  0  0  0  0  0  0  0
   20.0537   17.3186   20.4084 H   0  0  0  0  0  0  0  0  0  0  0  0
   20.2797   17.9056   22.4838 C   0  0  0  0  0  0  0  0  0  0  0  0
   21.3339   18.1886   22.3642 H   0  0  0  0  0  0  0  0  0  0  0  0
   20.2841   16.8556   22.8074 H   0  0  0  0  0  0  0  0  0  0  0  0
   19.6266   18.7706   23.5884 C   0  0  0  0  0  0  0  0  0  0  0  0
   19.6800   19.8321   23.3127 H   0  0  0  0  0  0  0  0  0  0  0  0
   18.5613   18.5152   23.6735 H   0  0  0  0  0  0  0  0  0  0  0  0
   20.3154   18.5703   24.9563 C   0  0  0  0  0  0  0  0  0  0  0  0
   21.3804   18.8257   24.8746 H   0  0  0  0  0  0  0  0  0  0  0  0
   20.2587   17.5131   25.2483 H   0  0  0  0  0  0  0  0  0  0  0  0
   19.6633   19.4377   26.0472 C   0  0  0  0  0  0  0  0  0  0  0  0
   19.7322   20.4928   25.7688 H   0  0  0  0  0  0  0  0  0  0  0  0
   18.6061   19.1755   26.1431 H   0  0  0  0  0  0  0  0  0  0  0  0
   20.3119   19.2693   27.4060 N   0  3  0  0  0  0  0  0  0  0  0  0
   21.3043   19.5267   27.3904 H   0  0  0  0  0  0  0  0  0  0  0  0
   20.2565   18.3010   27.7386 H   0  0  0  0  0  0  0  0  0  0  0  0
   19.8626   19.8556   28.1180 H   0  0  0  0  0  0  0  0  0  0  0  0
  1  2  1  0  0  0  0
  1  3  1  0  0  0  0
  1  4  1  0  0  0  0
  1  5  1  0  0  0  0
  5  6  1  0  0  0  0
  5  7  1  0  0  0  0
  5  8  1  0  0  0  0
  8  9  1  0  0  0  0
  8 10  1  0  0  0  0
  8 11  1  0  0  0  0
 11 12  1  0  0  0  0
 11 13  1  0  0  0  0
 11 14  1  0  0  0  0
 14 15  1  0  0  0  0
 14 16  1  0  0  0  0
 14 17  1  0  0  0  0
 17 18  1  0  0  0  0
 17 19  1  0  0  0  0
 17 20  1  0  0  0  0
 20 21  1  0  0  0  0
 20 22  1  0  0  0  0
 20 23  1  0  0  0  0
 23 24  1  0  0  0  0
 23 25  1  0  0  0  0
 23 26  1  0  0  0  0
M  END
> <VM2 Rank>
36

> <Conf_Id>
77

> <Probability>
0.92

> <Sum Probability>
72.26

> <Delta G>
1.232

> <G>
49.493

> <E>
16.711

> <-TS>
32.782

> <U+W>
-4.751

> <U>
48.494

> <W>
-53.245

> <W(PB)>
-55.524

> <W(SA)>
2.279

> <Valence>
3.117

> <Coulomb>
44.693

> <VdW>
0.684

> <VdW6>
-7.347

> <VdW12>
8.031

> <Bond>
0.208

> <Angle>
1.039

> <Pdih>
1.870

> <Idih>
0.000

> <Tether>
0.000

$$$$
VeraChem MOL file


 26 25  0  0  0  0  0  0  0  0999 V2000     
   20.1149   19.2554   19.0889 C   0  0  0  0  0  0  0  0  0  0  0  0
   19.8396   20.3172   19.0430 H   0  0  0  0  0  0  0  0  0  0  0  0
   20.9779   19.1021   18.4281 H   0  0  0  0  0  0  0  0  0  0  0  0
   19.2775   18.6675   18.6910 H   0  0  0  0  0  0  0  0  0  0  0  0
   20.4533   18.8325   20.5342 C   0  0  0  0  0  0  0  0  0  0  0  0
   21.3192   19.4119   20.8804 H   0  0  0  0  0  0  0  0  0  0  0  0
   20.7524   17.7751   20.5434 H   0  0  0  0  0  0  0  0  0  0  0  0
   19.2519   19.0440   21.4859 C   0  0  0  0  0  0  0  0  0  0  0  0
   18.9884   20.1102   21.5191 H   0  0  0  0  0  0  0  0  0  0  0  0
   18.3763   18.5234   21.0740 H   0  0  0  0  0  0  0  0  0  0  0  0
   19.4978   18.5247   22.9240 C   0  0  0  0  0  0  0  0  0  0  0  0
   19.7584   17.4579   22.8893 H   0  0  0  0  0  0  0  0  0  0  0  0
   18.5513   18.5929   23.4761 H   0  0  0  0  0  0  0  0  0  0  0  0
   20.5979   19.3076   23.6852 C   0  0  0  0  0  0  0  0  0  0  0  0
   21.5526   19.2165   23.1515 H   0  0  0  0  0  0  0  0  0  0  0  0
   20.3494   20.3779   23.6997 H   0  0  0  0  0  0  0  0  0  0  0  0
   20.8055   18.8073   25.1343 C   0  0  0  0  0  0  0  0  0  0  0  0
   21.6652   19.3323   25.5717 H   0  0  0  0  0  0  0  0  0  0  0  0
   21.0620   17.7395   25.1230 H   0  0  0  0  0  0  0  0  0  0  0  0
   19.5717   19.0350   26.0279 C   0  0  0  0  0  0  0  0  0  0  0  0
   19.3161   20.0980   26.0380 H   0  0  0  0  0  0  0  0  0  0  0  0
   18.7185   18.4791   25.6310 H   0  0  0  0  0  0  0  0  0  0  0  0
   19.7880   18.5924   27.4606 N   0  3  0  0  0  0  0  0  0  0  0  0
   18.9558   18.7526   28.0386 H   0  0  0  0  0  0  0  0  0  0  0  0
   20.5613   19.0987   27.9043 H   0  0  0  0  0  0  0  0  0  0  0  0
   20.0067   17.5927   27.5228 H   0  0  0  0  0  0  0  0  0  0  0  0
  1  2  1  0  0  0  0
  1  3  1  0  0  0  0
  1  4  1  0  0  0  0
  1  5  1  0  0  0  0
  5  6  1  0  0  0  0
  5  7  1  0  0  0  0
  5  8  1  0  0  0  0
  8  9  1  0  0  0  0
  8 10  1  0  0  0  0
  8 11  1  0  0  0  0
 11 12  1  0  0  0  0
 11 13  1  0  0  0  0
 11 14  1  0  0  0  0
 14 15  1  0  0  0  0
 14 16  1  0  0  0  0
 14 17  1  0  0  0  0
 17 18  1  0  0  0  0
 17 19  1  0  0  0  0
 17 20  1  0  0  0  0
 20 21  1  0  0  0  0
 20 22  1  0  0  0  0
 20 23  1  0  0  0  0
 23 24  1  0  0  0  0
 23 25  1  0  0  0  0
 23 26  1  0  0  0  0
M  END
> <VM2 Rank>
37

> <Conf_Id>
1343

> <Probability>
0.92

> <Sum Probability>
73.18

> <Delta G>
1.236

> <G>
49.497

> <E>
16.976

> <-TS>
32.521

> <U+W>
-4.486

> <U>
48.768

> <W>
-53.253

> <W(PB)>
-55.598

> <W(SA)>
2.344

> <Valence>
3.051

> <Coulomb>
44.907

> <VdW>
0.810

> <VdW6>
-6.972

> <VdW12>
7.782

> <Bond>
0.197

> <Angle>
0.815

> <Pdih>
2.039

> <Idih>
0.000

> <Tether>
0.000

$$$$
VeraChem MOL file


 26 25  0  0  0  0  0  0  0  0999 V2000     
   19.7329   17.9491   19.7445 C   0  0  0  0  0  0  0  0  0  0  0  0
   20.0424   16.9909   20.1815 H   0  0  0  0  0  0  0  0  0  0  0  0
   18.6841   18.1269   20.0129 H   0  0  0  0  0  0  0  0  0  0  0  0
   19.7821   17.8516   18.6523 H   0  0  0  0  0  0  0  0  0  0  0  0
   20.6447   19.1001   20.2265 C   0  0  0  0  0  0  0  0  0  0  0  0
   20.2989   20.0504   19.7963 H   0  0  0  0  0  0  0  0  0  0  0  0
   21.6588   18.9368   19.8356 H   0  0  0  0  0  0  0  0  0  0  0  0
   20.7192   19.2192   21.7679 C   0  0  0  0  0  0  0  0  0  0  0  0
   21.0952   18.2746   22.1823 H   0  0  0  0  0  0  0  0  0  0  0  0
   21.4607   19.9886   22.0233 H   0  0  0  0  0  0  0  0  0  0  0  0
   19.3625   19.5856   22.4210 C   0  0  0  0  0  0  0  0  0  0  0  0
   18.6431   18.7683   22.2789 H   0  0  0  0  0  0  0  0  0  0  0  0
   18.9427   20.4612   21.9070 H   0  0  0  0  0  0  0  0  0  0  0  0
   19.4731   19.9089   23.9313 C   0  0  0  0  0  0  0  0  0  0  0  0
   20.1710   20.7447   24.0793 H   0  0  0  0  0  0  0  0  0  0  0  0
   18.4936   20.2590   24.2857 H   0  0  0  0  0  0  0  0  0  0  0  0
   19.9161   18.7013   24.7904 C   0  0  0  0  0  0  0  0  0  0  0  0
   20.9274   18.3854   24.5051 H   0  0  0  0  0  0  0  0  0  0  0  0
   19.2464   17.8508   24.6060 H   0  0  0  0  0  0  0  0  0  0  0  0
   19.9032   19.0463   26.2900 C   0  0  0  0  0  0  0  0  0  0  0  0
   20.5812   19.8826   26.4811 H   0  0  0  0  0  0  0  0  0  0  0  0
   18.8953   19.3450   26.5904 H   0  0  0  0  0  0  0  0  0  0  0  0
   20.3293   17.8885   27.1694 N   0  3  0  0  0  0  0  0  0  0  0  0
   21.2824   17.5768   26.9559 H   0  0  0  0  0  0  0  0  0  0  0  0
   19.7136   17.0764   27.0568 H   0  0  0  0  0  0  0  0  0  0  0  0
   20.3131   18.1396   28.1640 H   0  0  0  0  0  0  0  0  0  0  0  0
  1  2  1  0  0  0  0
  1  3  1  0  0  0  0
  1  4  1  0  0  0  0
  1  5  1  0  0  0  0
  5  6  1  0  0  0  0
  5  7  1  0  0  0  0
  5  8  1  0  0  0  0
  8  9  1  0  0  0  0
  8 10  1  0  0  0  0
  8 11  1  0  0  0  0
 11 12  1  0  0  0  0
 11 13  1  0  0  0  0
 11 14  1  0  0  0  0
 14 15  1  0  0  0  0
 14 16  1  0  0  0  0
 14 17  1  0  0  0  0
 17 18  1  0  0  0  0
 17 19  1  0  0  0  0
 17 20  1  0  0  0  0
 20 21  1  0  0  0  0
 20 22  1  0  0  0  0
 20 23  1  0  0  0  0
 23 24  1  0  0  0  0
 23 25  1  0  0  0  0
 23 26  1  0  0  0  0
M  END
> <VM2 Rank>
38

> <Conf_Id>
1594

> <Probability>
0.89

> <Sum Probability>
74.07

> <Delta G>
1.252

> <G>
49.513

> <E>
16.924

> <-TS>
32.589

> <U+W>
-4.538

> <U>
48.768

> <W>
-53.306

> <W(PB)>
-55.644

> <W(SA)>
2.338

> <Valence>
3.172

> <Coulomb>
44.791

> <VdW>
0.805

> <VdW6>
-7.080

> <VdW12>
7.886

> <Bond>
0.203

> <Angle>
0.850

> <Pdih>
2.119

> <Idih>
0.000

> <Tether>
0.000

$$$$
VeraChem MOL file


 26 25  0  0  0  0  0  0  0  0999 V2000     
   20.6685   20.2617   19.9909 C   0  0  0  0  0  0  0  0  0  0  0  0
   20.1772   21.1720   19.6234 H   0  0  0  0  0  0  0  0  0  0  0  0
   21.6253   20.5540   20.4429 H   0  0  0  0  0  0  0  0  0  0  0  0
   20.8808   19.6208   19.1252 H   0  0  0  0  0  0  0  0  0  0  0  0
   19.7714   19.5336   21.0142 C   0  0  0  0  0  0  0  0  0  0  0  0
   18.8115   19.2804   20.5428 H   0  0  0  0  0  0  0  0  0  0  0  0
   19.5489   20.2183   21.8434 H   0  0  0  0  0  0  0  0  0  0  0  0
   20.4449   18.2483   21.5502 C   0  0  0  0  0  0  0  0  0  0  0  0
   20.7266   17.6124   20.6996 H   0  0  0  0  0  0  0  0  0  0  0  0
   21.3844   18.5048   22.0572 H   0  0  0  0  0  0  0  0  0  0  0  0
   19.5383   17.4204   22.4975 C   0  0  0  0  0  0  0  0  0  0  0  0
   20.0809   16.5146   22.8016 H   0  0  0  0  0  0  0  0  0  0  0  0
   18.6621   17.0700   21.9348 H   0  0  0  0  0  0  0  0  0  0  0  0
   19.0492   18.1631   23.7680 C   0  0  0  0  0  0  0  0  0  0  0  0
   18.3998   19.0026   23.4863 H   0  0  0  0  0  0  0  0  0  0  0  0
   18.4177   17.4760   24.3482 H   0  0  0  0  0  0  0  0  0  0  0  0
   20.1985   18.6705   24.6700 C   0  0  0  0  0  0  0  0  0  0  0  0
   20.7955   19.4194   24.1344 H   0  0  0  0  0  0  0  0  0  0  0  0
   20.8692   17.8372   24.9179 H   0  0  0  0  0  0  0  0  0  0  0  0
   19.6576   19.2958   25.9678 C   0  0  0  0  0  0  0  0  0  0  0  0
   19.0015   20.1363   25.7257 H   0  0  0  0  0  0  0  0  0  0  0  0
   19.0756   18.5528   26.5198 H   0  0  0  0  0  0  0  0  0  0  0  0
   20.7526   19.8056   26.8825 N   0  3  0  0  0  0  0  0  0  0  0  0
   21.3212   20.5297   26.4315 H   0  0  0  0  0  0  0  0  0  0  0  0
   21.3903   19.0559   27.1696 H   0  0  0  0  0  0  0  0  0  0  0  0
   20.3706   20.2174   27.7409 H   0  0  0  0  0  0  0  0  0  0  0  0
  1  2  1  0  0  0  0
  1  3  1  0  0  0  0
  1  4  1  0  0  0  0
  1  5  1  0  0  0  0
  5  6  1  0  0  0  0
  5  7  1  0  0  0  0
  5  8  1  0  0  0  0
  8  9  1  0  0  0  0
  8 10  1  0  0  0  0
  8 11  1  0  0  0  0
 11 12  1  0  0  0  0
 11 13  1  0  0  0  0
 11 14  1  0  0  0  0
 14 15  1  0  0  0  0
 14 16  1  0  0  0  0
 14 17  1  0  0  0  0
 17 18  1  0  0  0  0
 17 19  1  0  0  0  0
 17 20  1  0  0  0  0
 20 21  1  0  0  0  0
 20 22  1  0  0  0  0
 20 23  1  0  0  0  0
 23 24  1  0  0  0  0
 23 25  1  0  0  0  0
 23 26  1  0  0  0  0
M  END
> <VM2 Rank>
39

> <Conf_Id>
1549

> <Probability>
0.88

> <Sum Probability>
74.95

> <Delta G>
1.261

> <G>
49.522

> <E>
16.726

> <-TS>
32.795

> <U+W>
-4.736

> <U>
48.911

> <W>
-53.646

> <W(PB)>
-55.960

> <W(SA)>
2.314

> <Valence>
3.149

> <Coulomb>
45.131

> <VdW>
0.630

> <VdW6>
-7.453

> <VdW12>
8.084

> <Bond>
0.212

> <Angle>
1.075

> <Pdih>
1.862

> <Idih>
0.000

> <Tether>
0.000

$$$$
VeraChem MOL file


 26 25  0  0  0  0  0  0  0  0999 V2000     
   21.1801   18.9019   19.7927 C   0  0  0  0  0  0  0  0  0  0  0  0
   21.4179   19.9266   20.1041 H   0  0  0  0  0  0  0  0  0  0  0  0
   21.9173   18.2251   20.2439 H   0  0  0  0  0  0  0  0  0  0  0  0
   21.3010   18.8516   18.7029 H   0  0  0  0  0  0  0  0  0  0  0  0
   19.7418   18.5057   20.1964 C   0  0  0  0  0  0  0  0  0  0  0  0
   19.5101   17.5223   19.7639 H   0  0  0  0  0  0  0  0  0  0  0  0
   19.0259   19.2124   19.7539 H   0  0  0  0  0  0  0  0  0  0  0  0
   19.5315   18.4373   21.7282 C   0  0  0  0  0  0  0  0  0  0  0  0
   18.5211   18.0534   21.9252 H   0  0  0  0  0  0  0  0  0  0  0  0
   20.2310   17.7056   22.1535 H   0  0  0  0  0  0  0  0  0  0  0  0
   19.6997   19.8075   22.4323 C   0  0  0  0  0  0  0  0  0  0  0  0
   19.0855   20.5552   21.9118 H   0  0  0  0  0  0  0  0  0  0  0  0
   20.7401   20.1486   22.3489 H   0  0  0  0  0  0  0  0  0  0  0  0
   19.2890   19.7877   23.9251 C   0  0  0  0  0  0  0  0  0  0  0  0
   19.3373   20.8145   24.3139 H   0  0  0  0  0  0  0  0  0  0  0  0
   18.2399   19.4734   24.0148 H   0  0  0  0  0  0  0  0  0  0  0  0
   20.1827   18.8769   24.7993 C   0  0  0  0  0  0  0  0  0  0  0  0
   21.2359   19.1607   24.6725 H   0  0  0  0  0  0  0  0  0  0  0  0
   20.0874   17.8323   24.4771 H   0  0  0  0  0  0  0  0  0  0  0  0
   19.8012   18.9792   26.2866 C   0  0  0  0  0  0  0  0  0  0  0  0
   19.9105   20.0133   26.6244 H   0  0  0  0  0  0  0  0  0  0  0  0
   18.7575   18.6821   26.4201 H   0  0  0  0  0  0  0  0  0  0  0  0
   20.6550   18.1029   27.1803 N   0  3  0  0  0  0  0  0  0  0  0  0
   20.5753   17.1113   26.9323 H   0  0  0  0  0  0  0  0  0  0  0  0
   20.3845   18.1866   28.1664 H   0  0  0  0  0  0  0  0  0  0  0  0
   21.6483   18.3500   27.1215 H   0  0  0  0  0  0  0  0  0  0  0  0
  1  2  1  0  0  0  0
  1  3  1  0  0  0  0
  1  4  1  0  0  0  0
  1  5  1  0  0  0  0
  5  6  1  0  0  0  0
  5  7  1  0  0  0  0
  5  8  1  0  0  0  0
  8  9  1  0  0  0  0
  8 10  1  0  0  0  0
  8 11  1  0  0  0  0
 11 12  1  0  0  0  0
 11 13  1  0  0  0  0
 11 14  1  0  0  0  0
 14 15  1  0  0  0  0
 14 16  1  0  0  0  0
 14 17  1  0  0  0  0
 17 18  1  0  0  0  0
 17 19  1  0  0  0  0
 17 20  1  0  0  0  0
 20 21  1  0  0  0  0
 20 22  1  0  0  0  0
 20 23  1  0  0  0  0
 23 24  1  0  0  0  0
 23 25  1  0  0  0  0
 23 26  1  0  0  0  0
M  END
> <VM2 Rank>
40

> <Conf_Id>
463

> <Probability>
0.87

> <Sum Probability>
75.82

> <Delta G>
1.267

> <G>
49.528

> <E>
16.939

> <-TS>
32.589

> <U+W>
-4.523

> <U>
48.768

> <W>
-53.291

> <W(PB)>
-55.604

> <W(SA)>
2.313

> <Valence>
3.172

> <Coulomb>
44.791

> <VdW>
0.805

> <VdW6>
-7.080

> <VdW12>
7.886

> <Bond>
0.203

> <Angle>
0.850

> <Pdih>
2.120

> <Idih>
0.000

> <Tether>
0.000

$$$$
VeraChem MOL file


 26 25  0  0  0  0  0  0  0  0999 V2000     
   18.6775   18.9469   19.9242 C   0  0  0  0  0  0  0  0  0  0  0  0
   19.2236   18.5263   19.0697 H   0  0  0  0  0  0  0  0  0  0  0  0
   18.0131   18.1688   20.3221 H   0  0  0  0  0  0  0  0  0  0  0  0
   18.0506   19.7676   19.5521 H   0  0  0  0  0  0  0  0  0  0  0  0
   19.6503   19.4536   21.0100 C   0  0  0  0  0  0  0  0  0  0  0  0
   19.0696   19.9019   21.8272 H   0  0  0  0  0  0  0  0  0  0  0  0
   20.2808   20.2505   20.5918 H   0  0  0  0  0  0  0  0  0  0  0  0
   20.5426   18.3129   21.5535 C   0  0  0  0  0  0  0  0  0  0  0  0
   19.9153   17.5349   22.0081 H   0  0  0  0  0  0  0  0  0  0  0  0
   21.0562   17.8300   20.7107 H   0  0  0  0  0  0  0  0  0  0  0  0
   21.6144   18.7913   22.5670 C   0  0  0  0  0  0  0  0  0  0  0  0
   22.3057   19.4760   22.0566 H   0  0  0  0  0  0  0  0  0  0  0  0
   22.2201   17.9273   22.8732 H   0  0  0  0  0  0  0  0  0  0  0  0
   21.0643   19.4938   23.8353 C   0  0  0  0  0  0  0  0  0  0  0  0
   21.9160   19.7862   24.4652 H   0  0  0  0  0  0  0  0  0  0  0  0
   20.5603   20.4293   23.5585 H   0  0  0  0  0  0  0  0  0  0  0  0
   20.1060   18.6095   24.6669 C   0  0  0  0  0  0  0  0  0  0  0  0
   20.5976   17.6578   24.9088 H   0  0  0  0  0  0  0  0  0  0  0  0
   19.2089   18.3718   24.0814 H   0  0  0  0  0  0  0  0  0  0  0  0
   19.6828   19.3125   25.9687 C   0  0  0  0  0  0  0  0  0  0  0  0
   20.5678   19.5382   26.5697 H   0  0  0  0  0  0  0  0  0  0  0  0
   19.1786   20.2533   25.7317 H   0  0  0  0  0  0  0  0  0  0  0  0
   18.7431   18.4785   26.8154 N   0  3  0  0  0  0  0  0  0  0  0  0
   19.1689   17.5889   27.0953 H   0  0  0  0  0  0  0  0  0  0  0  0
   17.8759   18.2545   26.3164 H   0  0  0  0  0  0  0  0  0  0  0  0
   18.4743   18.9651   27.6776 H   0  0  0  0  0  0  0  0  0  0  0  0
  1  2  1  0  0  0  0
  1  3  1  0  0  0  0
  1  4  1  0  0  0  0
  1  5  1  0  0  0  0
  5  6  1  0  0  0  0
  5  7  1  0  0  0  0
  5  8  1  0  0  0  0
  8  9  1  0  0  0  0
  8 10  1  0  0  0  0
  8 11  1  0  0  0  0
 11 12  1  0  0  0  0
 11 13  1  0  0  0  0
 11 14  1  0  0  0  0
 14 15  1  0  0  0  0
 14 16  1  0  0  0  0
 14 17  1  0  0  0  0
 17 18  1  0  0  0  0
 17 19  1  0  0  0  0
 17 20  1  0  0  0  0
 20 21  1  0  0  0  0
 20 22  1  0  0  0  0
 20 23  1  0  0  0  0
 23 24  1  0  0  0  0
 23 25  1  0  0  0  0
 23 26  1  0  0  0  0
M  END
> <VM2 Rank>
41

> <Conf_Id>
152

> <Probability>
0.84

> <Sum Probability>
76.66

> <Delta G>
1.289

> <G>
49.550

> <E>
16.754

> <-TS>
32.795

> <U+W>
-4.707

> <U>
48.910

> <W>
-53.618

> <W(PB)>
-55.928

> <W(SA)>
2.311

> <Valence>
3.149

> <Coulomb>
45.131

> <VdW>
0.630

> <VdW6>
-7.453

> <VdW12>
8.083

> <Bond>
0.212

> <Angle>
1.075

> <Pdih>
1.862

> <Idih>
0.000

> <Tether>
0.000

$$$$
VeraChem MOL file


 26 25  0  0  0  0  0  0  0  0999 V2000     
   19.8458   19.2217   19.3278 C   0  0  0  0  0  0  0  0  0  0  0  0
   18.7987   18.9696   19.5356 H   0  0  0  0  0  0  0  0  0  0  0  0
   19.9455   20.3149   19.3368 H   0  0  0  0  0  0  0  0  0  0  0  0
   20.0727   18.8727   18.3121 H   0  0  0  0  0  0  0  0  0  0  0  0
   20.8029   18.5676   20.3502 C   0  0  0  0  0  0  0  0  0  0  0  0
   21.8381   18.7421   20.0250 H   0  0  0  0  0  0  0  0  0  0  0  0
   20.6596   17.4780   20.3471 H   0  0  0  0  0  0  0  0  0  0  0  0
   20.6376   19.1137   21.7893 C   0  0  0  0  0  0  0  0  0  0  0  0
   21.4433   18.6937   22.4049 H   0  0  0  0  0  0  0  0  0  0  0  0
   20.7840   20.2026   21.7871 H   0  0  0  0  0  0  0  0  0  0  0  0
   19.2663   18.7710   22.4253 C   0  0  0  0  0  0  0  0  0  0  0  0
   19.1211   17.6820   22.4301 H   0  0  0  0  0  0  0  0  0  0  0  0
   18.4623   19.1870   21.8047 H   0  0  0  0  0  0  0  0  0  0  0  0
   19.0945   19.3237   23.8619 C   0  0  0  0  0  0  0  0  0  0  0  0
   19.2406   20.4128   23.8576 H   0  0  0  0  0  0  0  0  0  0  0  0
   18.0555   19.1538   24.1772 H   0  0  0  0  0  0  0  0  0  0  0  0
   20.0429   18.6734   24.8965 C   0  0  0  0  0  0  0  0  0  0  0  0
   21.0871   18.9041   24.6516 H   0  0  0  0  0  0  0  0  0  0  0  0
   19.9350   17.5811   24.8620 H   0  0  0  0  0  0  0  0  0  0  0  0
   19.7425   19.1713   26.3213 C   0  0  0  0  0  0  0  0  0  0  0  0
   19.8642   20.2570   26.3650 H   0  0  0  0  0  0  0  0  0  0  0  0
   18.7093   18.9301   26.5854 H   0  0  0  0  0  0  0  0  0  0  0  0
   20.6484   18.5566   27.3686 N   0  3  0  0  0  0  0  0  0  0  0  0
   20.4310   18.9015   28.3100 H   0  0  0  0  0  0  0  0  0  0  0  0
   21.6357   18.7704   27.1932 H   0  0  0  0  0  0  0  0  0  0  0  0
   20.5611   17.5354   27.3976 H   0  0  0  0  0  0  0  0  0  0  0  0
  1  2  1  0  0  0  0
  1  3  1  0  0  0  0
  1  4  1  0  0  0  0
  1  5  1  0  0  0  0
  5  6  1  0  0  0  0
  5  7  1  0  0  0  0
  5  8  1  0  0  0  0
  8  9  1  0  0  0  0
  8 10  1  0  0  0  0
  8 11  1  0  0  0  0
 11 12  1  0  0  0  0
 11 13  1  0  0  0  0
 11 14  1  0  0  0  0
 14 15  1  0  0  0  0
 14 16  1  0  0  0  0
 14 17  1  0  0  0  0
 17 18  1  0  0  0  0
 17 19  1  0  0  0  0
 17 20  1  0  0  0  0
 20 21  1  0  0  0  0
 20 22  1  0  0  0  0
 20 23  1  0  0  0  0
 23 24  1  0  0  0  0
 23 25  1  0  0  0  0
 23 26  1  0  0  0  0
M  END
> <VM2 Rank>
42

> <Conf_Id>
1570

> <Probability>
0.76

> <Sum Probability>
77.41

> <Delta G>
1.349

> <G>
49.610

> <E>
17.103

> <-TS>
32.507

> <U+W>
-4.359

> <U>
48.902

> <W>
-53.260

> <W(PB)>
-55.569

> <W(SA)>
2.309

> <Valence>
3.277

> <Coulomb>
44.745

> <VdW>
0.880

> <VdW6>
-6.990

> <VdW12>
7.871

> <Bond>
0.211

> <Angle>
0.950

> <Pdih>
2.115

> <Idih>
0.000

> <Tether>
0.000

$$$$
VeraChem MOL file


 26 25  0  0  0  0  0  0  0  0999 V2000     
   19.9875   19.3146   19.3325 C   0  0  0  0  0  0  0  0  0  0  0  0
   18.9441   19.6546   19.3029 H   0  0  0  0  0  0  0  0  0  0  0  0
   20.6211   20.1701   19.5967 H   0  0  0  0  0  0  0  0  0  0  0  0
   20.2663   18.9995   18.3186 H   0  0  0  0  0  0  0  0  0  0  0  0
   20.1635   18.1461   20.3289 C   0  0  0  0  0  0  0  0  0  0  0  0
   21.2204   17.8473   20.3662 H   0  0  0  0  0  0  0  0  0  0  0  0
   19.6113   17.2744   19.9504 H   0  0  0  0  0  0  0  0  0  0  0  0
   19.6596   18.4694   21.7565 C   0  0  0  0  0  0  0  0  0  0  0  0
   18.6023   18.7649   21.7137 H   0  0  0  0  0  0  0  0  0  0  0  0
   19.6996   17.5449   22.3465 H   0  0  0  0  0  0  0  0  0  0  0  0
   20.4837   19.5739   22.4660 C   0  0  0  0  0  0  0  0  0  0  0  0
   20.4466   20.4954   21.8711 H   0  0  0  0  0  0  0  0  0  0  0  0
   21.5407   19.2773   22.5110 H   0  0  0  0  0  0  0  0  0  0  0  0
   19.9768   19.9056   23.8914 C   0  0  0  0  0  0  0  0  0  0  0  0
   20.5262   20.7832   24.2597 H   0  0  0  0  0  0  0  0  0  0  0  0
   18.9193   20.2010   23.8470 H   0  0  0  0  0  0  0  0  0  0  0  0
   20.1535   18.7463   24.9003 C   0  0  0  0  0  0  0  0  0  0  0  0
   21.2007   18.4158   24.9042 H   0  0  0  0  0  0  0  0  0  0  0  0
   19.5429   17.8857   24.6001 H   0  0  0  0  0  0  0  0  0  0  0  0
   19.7480   19.1749   26.3215 C   0  0  0  0  0  0  0  0  0  0  0  0
   20.3630   20.0207   26.6406 H   0  0  0  0  0  0  0  0  0  0  0  0
   18.7009   19.4897   26.3263 H   0  0  0  0  0  0  0  0  0  0  0  0
   19.9084   18.0684   27.3440 N   0  3  0  0  0  0  0  0  0  0  0  0
   19.6334   18.3752   28.2835 H   0  0  0  0  0  0  0  0  0  0  0  0
   20.8794   17.7452   27.4082 H   0  0  0  0  0  0  0  0  0  0  0  0
   19.3326   17.2512   27.1166 H   0  0  0  0  0  0  0  0  0  0  0  0
  1  2  1  0  0  0  0
  1  3  1  0  0  0  0
  1  4  1  0  0  0  0
  1  5  1  0  0  0  0
  5  6  1  0  0  0  0
  5  7  1  0  0  0  0
  5  8  1  0  0  0  0
  8  9  1  0  0  0  0
  8 10  1  0  0  0  0
  8 11  1  0  0  0  0
 11 12  1  0  0  0  0
 11 13  1  0  0  0  0
 11 14  1  0  0  0  0
 14 15  1  0  0  0  0
 14 16  1  0  0  0  0
 14 17  1  0  0  0  0
 17 18  1  0  0  0  0
 17 19  1  0  0  0  0
 17 20  1  0  0  0  0
 20 21  1  0  0  0  0
 20 22  1  0  0  0  0
 20 23  1  0  0  0  0
 23 24  1  0  0  0  0
 23 25  1  0  0  0  0
 23 26  1  0  0  0  0
M  END
> <VM2 Rank>
43

> <Conf_Id>
1114

> <Probability>
0.74

> <Sum Probability>
78.15

> <Delta G>
1.364

> <G>
49.625

> <E>
17.118

> <-TS>
32.507

> <U+W>
-4.343

> <U>
48.901

> <W>
-53.245

> <W(PB)>
-55.589

> <W(SA)>
2.344

> <Valence>
3.277

> <Coulomb>
44.745

> <VdW>
0.880

> <VdW6>
-6.990

> <VdW12>
7.870

> <Bond>
0.211

> <Angle>
0.950

> <Pdih>
2.115

> <Idih>
0.000

> <Tether>
0.000

$$$$
VeraChem MOL file


 26 25  0  0  0  0  0  0  0  0999 V2000     
   20.7060   19.7375   19.8744 C   0  0  0  0  0  0  0  0  0  0  0  0
   19.7437   20.1446   19.5378 H   0  0  0  0  0  0  0  0  0  0  0  0
   21.1341   20.4296   20.6101 H   0  0  0  0  0  0  0  0  0  0  0  0
   21.3821   19.7156   19.0099 H   0  0  0  0  0  0  0  0  0  0  0  0
   20.5341   18.3185   20.4624 C   0  0  0  0  0  0  0  0  0  0  0  0
   21.5046   17.9462   20.8190 H   0  0  0  0  0  0  0  0  0  0  0  0
   20.2202   17.6379   19.6586 H   0  0  0  0  0  0  0  0  0  0  0  0
   19.4940   18.2485   21.6065 C   0  0  0  0  0  0  0  0  0  0  0  0
   18.5201   18.5999   21.2385 H   0  0  0  0  0  0  0  0  0  0  0  0
   19.3562   17.1955   21.8884 H   0  0  0  0  0  0  0  0  0  0  0  0
   19.9016   19.0583   22.8607 C   0  0  0  0  0  0  0  0  0  0  0  0
   19.9692   20.1251   22.6102 H   0  0  0  0  0  0  0  0  0  0  0  0
   20.9018   18.7415   23.1845 H   0  0  0  0  0  0  0  0  0  0  0  0
   18.8878   18.8732   24.0152 C   0  0  0  0  0  0  0  0  0  0  0  0
   17.8845   19.1460   23.6599 H   0  0  0  0  0  0  0  0  0  0  0  0
   18.8336   17.8129   24.2963 H   0  0  0  0  0  0  0  0  0  0  0  0
   19.2194   19.7322   25.2612 C   0  0  0  0  0  0  0  0  0  0  0  0
   18.4407   19.5850   26.0213 H   0  0  0  0  0  0  0  0  0  0  0  0
   19.1831   20.7952   24.9880 H   0  0  0  0  0  0  0  0  0  0  0  0
   20.5969   19.4289   25.8849 C   0  0  0  0  0  0  0  0  0  0  0  0
   21.3848   19.6163   25.1510 H   0  0  0  0  0  0  0  0  0  0  0  0
   20.7631   20.0925   26.7379 H   0  0  0  0  0  0  0  0  0  0  0  0
   20.7412   18.0019   26.3756 N   0  3  0  0  0  0  0  0  0  0  0  0
   21.6637   17.8330   26.7912 H   0  0  0  0  0  0  0  0  0  0  0  0
   20.6259   17.3273   25.6129 H   0  0  0  0  0  0  0  0  0  0  0  0
   20.0436   17.7734   27.0911 H   0  0  0  0  0  0  0  0  0  0  0  0
  1  2  1  0  0  0  0
  1  3  1  0  0  0  0
  1  4  1  0  0  0  0
  1  5  1  0  0  0  0
  5  6  1  0  0  0  0
  5  7  1  0  0  0  0
  5  8  1  0  0  0  0
  8  9  1  0  0  0  0
  8 10  1  0  0  0  0
  8 11  1  0  0  0  0
 11 12  1  0  0  0  0
 11 13  1  0  0  0  0
 11 14  1  0  0  0  0
 14 15  1  0  0  0  0
 14 16  1  0  0  0  0
 14 17  1  0  0  0  0
 17 18  1  0  0  0  0
 17 19  1  0  0  0  0
 17 20  1  0  0  0  0
 20 21  1  0  0  0  0
 20 22  1  0  0  0  0
 20 23  1  0  0  0  0
 23 24  1  0  0  0  0
 23 25  1  0  0  0  0
 23 26  1  0  0  0  0
M  END
> <VM2 Rank>
44

> <Conf_Id>
1049

> <Probability>
0.61

> <Sum Probability>
78.77

> <Delta G>
1.476

> <G>
49.737

> <E>
16.987

> <-TS>
32.750

> <U+W>
-4.475

> <U>
49.278

> <W>
-53.752

> <W(PB)>
-56.043

> <W(SA)>
2.291

> <Valence>
3.047

> <Coulomb>
45.459

> <VdW>
0.771

> <VdW6>
-7.730

> <VdW12>
8.501

> <Bond>
0.210

> <Angle>
0.867

> <Pdih>
1.970

> <Idih>
0.000

> <Tether>
0.000

$$$$
VeraChem MOL file


 26 25  0  0  0  0  0  0  0  0999 V2000     
   19.1490   18.7120   19.8226 C   0  0  0  0  0  0  0  0  0  0  0  0
   19.1697   19.7666   19.5188 H   0  0  0  0  0  0  0  0  0  0  0  0
   18.9430   18.1091   18.9286 H   0  0  0  0  0  0  0  0  0  0  0  0
   18.3109   18.5698   20.5161 H   0  0  0  0  0  0  0  0  0  0  0  0
   20.4921   18.2910   20.4610 C   0  0  0  0  0  0  0  0  0  0  0  0
   21.2778   18.3347   19.6938 H   0  0  0  0  0  0  0  0  0  0  0  0
   20.4353   17.2419   20.7832 H   0  0  0  0  0  0  0  0  0  0  0  0
   20.9127   19.1831   21.6539 C   0  0  0  0  0  0  0  0  0  0  0  0
   21.9206   18.8846   21.9739 H   0  0  0  0  0  0  0  0  0  0  0  0
   20.9907   20.2273   21.3210 H   0  0  0  0  0  0  0  0  0  0  0  0
   19.9506   19.0905   22.8623 C   0  0  0  0  0  0  0  0  0  0  0  0
   19.8325   18.0372   23.1487 H   0  0  0  0  0  0  0  0  0  0  0  0
   18.9563   19.4580   22.5764 H   0  0  0  0  0  0  0  0  0  0  0  0
   20.4661   19.9125   24.0679 C   0  0  0  0  0  0  0  0  0  0  0  0
   21.4477   19.5343   24.3836 H   0  0  0  0  0  0  0  0  0  0  0  0
   20.6275   20.9523   23.7515 H   0  0  0  0  0  0  0  0  0  0  0  0
   19.4890   19.9097   25.2703 C   0  0  0  0  0  0  0  0  0  0  0  0
   18.5403   20.3719   24.9666 H   0  0  0  0  0  0  0  0  0  0  0  0
   19.8955   20.5430   26.0699 H   0  0  0  0  0  0  0  0  0  0  0  0
   19.1957   18.5061   25.8381 C   0  0  0  0  0  0  0  0  0  0  0  0
   18.4813   18.5899   26.6617 H   0  0  0  0  0  0  0  0  0  0  0  0
   18.7473   17.8795   25.0629 H   0  0  0  0  0  0  0  0  0  0  0  0
   20.4258   17.7941   26.3650 N   0  3  0  0  0  0  0  0  0  0  0  0
   20.8772   18.3222   27.1189 H   0  0  0  0  0  0  0  0  0  0  0  0
   21.1260   17.6565   25.6296 H   0  0  0  0  0  0  0  0  0  0  0  0
   20.1980   16.8679   26.7423 H   0  0  0  0  0  0  0  0  0  0  0  0
  1  2  1  0  0  0  0
  1  3  1  0  0  0  0
  1  4  1  0  0  0  0
  1  5  1  0  0  0  0
  5  6  1  0  0  0  0
  5  7  1  0  0  0  0
  5  8  1  0  0  0  0
  8  9  1  0  0  0  0
  8 10  1  0  0  0  0
  8 11  1  0  0  0  0
 11 12  1  0  0  0  0
 11 13  1  0  0  0  0
 11 14  1  0  0  0  0
 14 15  1  0  0  0  0
 14 16  1  0  0  0  0
 14 17  1  0  0  0  0
 17 18  1  0  0  0  0
 17 19  1  0  0  0  0
 17 20  1  0  0  0  0
 20 21  1  0  0  0  0
 20 22  1  0  0  0  0
 20 23  1  0  0  0  0
 23 24  1  0  0  0  0
 23 25  1  0  0  0  0
 23 26  1  0  0  0  0
M  END
> <VM2 Rank>
45

> <Conf_Id>
460

> <Probability>
0.61

> <Sum Probability>
79.37

> <Delta G>
1.481

> <G>
49.742

> <E>
16.991

> <-TS>
32.750

> <U+W>
-4.470

> <U>
49.278

> <W>
-53.748

> <W(PB)>
-56.036

> <W(SA)>
2.288

> <Valence>
3.048

> <Coulomb>
45.459

> <VdW>
0.771

> <VdW6>
-7.730

> <VdW12>
8.501

> <Bond>
0.210

> <Angle>
0.867

> <Pdih>
1.970

> <Idih>
0.000

> <Tether>
0.000

$$$$
VeraChem MOL file


 26 25  0  0  0  0  0  0  0  0999 V2000     
   20.3826   19.9109   19.6220 C   0  0  0  0  0  0  0  0  0  0  0  0
   19.3596   19.8036   19.2382 H   0  0  0  0  0  0  0  0  0  0  0  0
   20.4925   20.9268   20.0233 H   0  0  0  0  0  0  0  0  0  0  0  0
   21.0729   19.8068   18.7748 H   0  0  0  0  0  0  0  0  0  0  0  0
   20.6833   18.8515   20.7033 C   0  0  0  0  0  0  0  0  0  0  0  0
   21.7224   18.9626   21.0437 H   0  0  0  0  0  0  0  0  0  0  0  0
   20.5993   17.8479   20.2633 H   0  0  0  0  0  0  0  0  0  0  0  0
   19.7242   18.9755   21.9079 C   0  0  0  0  0  0  0  0  0  0  0  0
   19.8110   19.9845   22.3320 H   0  0  0  0  0  0  0  0  0  0  0  0
   18.6871   18.8614   21.5636 H   0  0  0  0  0  0  0  0  0  0  0  0
   20.0279   17.9172   22.9952 C   0  0  0  0  0  0  0  0  0  0  0  0
   21.0509   18.0548   23.3698 H   0  0  0  0  0  0  0  0  0  0  0  0
   20.0047   16.9184   22.5379 H   0  0  0  0  0  0  0  0  0  0  0  0
   19.0225   17.9367   24.1755 C   0  0  0  0  0  0  0  0  0  0  0  0
   18.0187   17.7021   23.7953 H   0  0  0  0  0  0  0  0  0  0  0  0
   19.2744   17.1231   24.8690 H   0  0  0  0  0  0  0  0  0  0  0  0
   18.9600   19.2747   24.9583 C   0  0  0  0  0  0  0  0  0  0  0  0
   18.2593   19.1694   25.7971 H   0  0  0  0  0  0  0  0  0  0  0  0
   18.5409   20.0594   24.3157 H   0  0  0  0  0  0  0  0  0  0  0  0
   20.3244   19.7488   25.4977 C   0  0  0  0  0  0  0  0  0  0  0  0
   21.0202   19.8909   24.6667 H   0  0  0  0  0  0  0  0  0  0  0  0
   20.2008   20.7090   26.0058 H   0  0  0  0  0  0  0  0  0  0  0  0
   20.9562   18.7837   26.4811 N   0  3  0  0  0  0  0  0  0  0  0  0
   21.8602   19.1259   26.8243 H   0  0  0  0  0  0  0  0  0  0  0  0
   21.1221   17.8665   26.0555 H   0  0  0  0  0  0  0  0  0  0  0  0
   20.3609   18.6337   27.3021 H   0  0  0  0  0  0  0  0  0  0  0  0
  1  2  1  0  0  0  0
  1  3  1  0  0  0  0
  1  4  1  0  0  0  0
  1  5  1  0  0  0  0
  5  6  1  0  0  0  0
  5  7  1  0  0  0  0
  5  8  1  0  0  0  0
  8  9  1  0  0  0  0
  8 10  1  0  0  0  0
  8 11  1  0  0  0  0
 11 12  1  0  0  0  0
 11 13  1  0  0  0  0
 11 14  1  0  0  0  0
 14 15  1  0  0  0  0
 14 16  1  0  0  0  0
 14 17  1  0  0  0  0
 17 18  1  0  0  0  0
 17 19  1  0  0  0  0
 17 20  1  0  0  0  0
 20 21  1  0  0  0  0
 20 22  1  0  0  0  0
 20 23  1  0  0  0  0
 23 24  1  0  0  0  0
 23 25  1  0  0  0  0
 23 26  1  0  0  0  0
M  END
> <VM2 Rank>
46

> <Conf_Id>
139

> <Probability>
0.60

> <Sum Probability>
79.97

> <Delta G>
1.488

> <G>
49.749

> <E>
16.848

> <-TS>
32.900

> <U+W>
-4.613

> <U>
49.198

> <W>
-53.811

> <W(PB)>
-56.088

> <W(SA)>
2.276

> <Valence>
3.018

> <Coulomb>
45.590

> <VdW>
0.590

> <VdW6>
-8.074

> <VdW12>
8.663

> <Bond>
0.222

> <Angle>
0.958

> <Pdih>
1.839

> <Idih>
0.000

> <Tether>
0.000

$$$$
VeraChem MOL file


 26 25  0  0  0  0  0  0  0  0999 V2000     
   19.3870   19.9492   20.2013 C   0  0  0  0  0  0  0  0  0  0  0  0
   18.4637   20.1919   19.6596 H   0  0  0  0  0  0  0  0  0  0  0  0
   19.4655   20.6430   21.0476 H   0  0  0  0  0  0  0  0  0  0  0  0
   20.2319   20.1336   19.5251 H   0  0  0  0  0  0  0  0  0  0  0  0
   19.3660   18.4784   20.6753 C   0  0  0  0  0  0  0  0  0  0  0  0
   19.1673   17.8309   19.8100 H   0  0  0  0  0  0  0  0  0  0  0  0
   18.5257   18.3232   21.3651 H   0  0  0  0  0  0  0  0  0  0  0  0
   20.6928   18.0246   21.3360 C   0  0  0  0  0  0  0  0  0  0  0  0
   20.6051   16.9654   21.6143 H   0  0  0  0  0  0  0  0  0  0  0  0
   21.4961   18.0730   20.5880 H   0  0  0  0  0  0  0  0  0  0  0  0
   21.1253   18.8392   22.5826 C   0  0  0  0  0  0  0  0  0  0  0  0
   21.3271   19.8802   22.2977 H   0  0  0  0  0  0  0  0  0  0  0  0
   22.0807   18.4348   22.9444 H   0  0  0  0  0  0  0  0  0  0  0  0
   20.0936   18.8012   23.7353 C   0  0  0  0  0  0  0  0  0  0  0  0
   19.1557   19.2723   23.4123 H   0  0  0  0  0  0  0  0  0  0  0  0
   19.8611   17.7558   23.9780 H   0  0  0  0  0  0  0  0  0  0  0  0
   20.6164   19.5309   24.9951 C   0  0  0  0  0  0  0  0  0  0  0  0
   20.8843   20.5629   24.7321 H   0  0  0  0  0  0  0  0  0  0  0  0
   21.5360   19.0503   25.3548 H   0  0  0  0  0  0  0  0  0  0  0  0
   19.5785   19.5714   26.1332 C   0  0  0  0  0  0  0  0  0  0  0  0
   19.9708   20.1688   26.9608 H   0  0  0  0  0  0  0  0  0  0  0  0
   18.6596   20.0446   25.7768 H   0  0  0  0  0  0  0  0  0  0  0  0
   19.2214   18.2040   26.6822 N   0  3  0  0  0  0  0  0  0  0  0  0
   20.0430   17.7170   27.0546 H   0  0  0  0  0  0  0  0  0  0  0  0
   18.8119   17.6010   25.9621 H   0  0  0  0  0  0  0  0  0  0  0  0
   18.5388   18.2666   27.4454 H   0  0  0  0  0  0  0  0  0  0  0  0
  1  2  1  0  0  0  0
  1  3  1  0  0  0  0
  1  4  1  0  0  0  0
  1  5  1  0  0  0  0
  5  6  1  0  0  0  0
  5  7  1  0  0  0  0
  5  8  1  0  0  0  0
  8  9  1  0  0  0  0
  8 10  1  0  0  0  0
  8 11  1  0  0  0  0
 11 12  1  0  0  0  0
 11 13  1  0  0  0  0
 11 14  1  0  0  0  0
 14 15  1  0  0  0  0
 14 16  1  0  0  0  0
 14 17  1  0  0  0  0
 17 18  1  0  0  0  0
 17 19  1  0  0  0  0
 17 20  1  0  0  0  0
 20 21  1  0  0  0  0
 20 22  1  0  0  0  0
 20 23  1  0  0  0  0
 23 24  1  0  0  0  0
 23 25  1  0  0  0  0
 23 26  1  0  0  0  0
M  END
> <VM2 Rank>
47

> <Conf_Id>
222

> <Probability>
0.59

> <Sum Probability>
80.56

> <Delta G>
1.500

> <G>
49.761

> <E>
16.873

> <-TS>
32.888

> <U+W>
-4.588

> <U>
49.147

> <W>
-53.735

> <W(PB)>
-56.022

> <W(SA)>
2.286

> <Valence>
3.219

> <Coulomb>
45.149

> <VdW>
0.779

> <VdW6>
-7.884

> <VdW12>
8.663

> <Bond>
0.228

> <Angle>
1.077

> <Pdih>
1.914

> <Idih>
0.000

> <Tether>
0.000

$$$$
VeraChem MOL file


 26 25  0  0  0  0  0  0  0  0999 V2000     
   19.8857   19.7490   19.6631 C   0  0  0  0  0  0  0  0  0  0  0  0
   18.8185   19.7208   19.9161 H   0  0  0  0  0  0  0  0  0  0  0  0
   20.2918   20.7147   19.9912 H   0  0  0  0  0  0  0  0  0  0  0  0
   19.9669   19.7047   18.5694 H   0  0  0  0  0  0  0  0  0  0  0  0
   20.6534   18.5744   20.3108 C   0  0  0  0  0  0  0  0  0  0  0  0
   21.6868   18.5769   19.9367 H   0  0  0  0  0  0  0  0  0  0  0  0
   20.2118   17.6214   19.9875 H   0  0  0  0  0  0  0  0  0  0  0  0
   20.6841   18.6398   21.8568 C   0  0  0  0  0  0  0  0  0  0  0  0
   21.3302   17.8324   22.2277 H   0  0  0  0  0  0  0  0  0  0  0  0
   21.1548   19.5822   22.1664 H   0  0  0  0  0  0  0  0  0  0  0  0
   19.2827   18.5060   22.5044 C   0  0  0  0  0  0  0  0  0  0  0  0
   18.7788   17.6225   22.0889 H   0  0  0  0  0  0  0  0  0  0  0  0
   18.6608   19.3710   22.2389 H   0  0  0  0  0  0  0  0  0  0  0  0
   19.3286   18.3664   24.0458 C   0  0  0  0  0  0  0  0  0  0  0  0
   18.3093   18.1758   24.4092 H   0  0  0  0  0  0  0  0  0  0  0  0
   19.9229   17.4821   24.3122 H   0  0  0  0  0  0  0  0  0  0  0  0
   19.8917   19.6203   24.7602 C   0  0  0  0  0  0  0  0  0  0  0  0
   19.3460   20.5098   24.4184 H   0  0  0  0  0  0  0  0  0  0  0  0
   20.9447   19.7743   24.4924 H   0  0  0  0  0  0  0  0  0  0  0  0
   19.7694   19.5322   26.2936 C   0  0  0  0  0  0  0  0  0  0  0  0
   20.1084   20.4713   26.7395 H   0  0  0  0  0  0  0  0  0  0  0  0
   18.7228   19.3810   26.5713 H   0  0  0  0  0  0  0  0  0  0  0  0
   20.5853   18.4108   26.9062 N   0  3  0  0  0  0  0  0  0  0  0  0
   20.4913   18.3855   27.9274 H   0  0  0  0  0  0  0  0  0  0  0  0
   21.5846   18.5102   26.6999 H   0  0  0  0  0  0  0  0  0  0  0  0
   20.2930   17.4936   26.5552 H   0  0  0  0  0  0  0  0  0  0  0  0
  1  2  1  0  0  0  0
  1  3  1  0  0  0  0
  1  4  1  0  0  0  0
  1  5  1  0  0  0  0
  5  6  1  0  0  0  0
  5  7  1  0  0  0  0
  5  8  1  0  0  0  0
  8  9  1  0  0  0  0
  8 10  1  0  0  0  0
  8 11  1  0  0  0  0
 11 12  1  0  0  0  0
 11 13  1  0  0  0  0
 11 14  1  0  0  0  0
 14 15  1  0  0  0  0
 14 16  1  0  0  0  0
 14 17  1  0  0  0  0
 17 18  1  0  0  0  0
 17 19  1  0  0  0  0
 17 20  1  0  0  0  0
 20 21  1  0  0  0  0
 20 22  1  0  0  0  0
 20 23  1  0  0  0  0
 23 24  1  0  0  0  0
 23 25  1  0  0  0  0
 23 26  1  0  0  0  0
M  END
> <VM2 Rank>
48

> <Conf_Id>
506

> <Probability>
0.59

> <Sum Probability>
81.15

> <Delta G>
1.502

> <G>
49.763

> <E>
17.062

> <-TS>
32.701

> <U+W>
-4.399

> <U>
49.228

> <W>
-53.627

> <W(PB)>
-55.902

> <W(SA)>
2.275

> <Valence>
3.267

> <Coulomb>
45.067

> <VdW>
0.893

> <VdW6>
-7.615

> <VdW12>
8.508

> <Bond>
0.224

> <Angle>
0.867

> <Pdih>
2.176

> <Idih>
0.000

> <Tether>
0.000

$$$$
VeraChem MOL file


 26 25  0  0  0  0  0  0  0  0999 V2000     
   21.4561   18.7057   20.5077 C   0  0  0  0  0  0  0  0  0  0  0  0
   21.7321   18.1686   21.4237 H   0  0  0  0  0  0  0  0  0  0  0  0
   21.1166   17.9706   19.7665 H   0  0  0  0  0  0  0  0  0  0  0  0
   22.3649   19.1816   20.1172 H   0  0  0  0  0  0  0  0  0  0  0  0
   20.3642   19.7649   20.7796 C   0  0  0  0  0  0  0  0  0  0  0  0
   20.2075   20.3539   19.8652 H   0  0  0  0  0  0  0  0  0  0  0  0
   20.7185   20.4766   21.5372 H   0  0  0  0  0  0  0  0  0  0  0  0
   19.0064   19.1542   21.2110 C   0  0  0  0  0  0  0  0  0  0  0  0
   18.2829   19.9682   21.3567 H   0  0  0  0  0  0  0  0  0  0  0  0
   18.6124   18.5469   20.3846 H   0  0  0  0  0  0  0  0  0  0  0  0
   19.0480   18.2817   22.4923 C   0  0  0  0  0  0  0  0  0  0  0  0
   19.6803   17.3998   22.3242 H   0  0  0  0  0  0  0  0  0  0  0  0
   18.0364   17.8962   22.6795 H   0  0  0  0  0  0  0  0  0  0  0  0
   19.5369   19.0456   23.7461 C   0  0  0  0  0  0  0  0  0  0  0  0
   20.5721   19.3761   23.5948 H   0  0  0  0  0  0  0  0  0  0  0  0
   18.9279   19.9496   23.8855 H   0  0  0  0  0  0  0  0  0  0  0  0
   19.4565   18.1686   25.0180 C   0  0  0  0  0  0  0  0  0  0  0  0
   20.0827   17.2744   24.8985 H   0  0  0  0  0  0  0  0  0  0  0  0
   18.4258   17.8139   25.1511 H   0  0  0  0  0  0  0  0  0  0  0  0
   19.8788   18.9263   26.2916 C   0  0  0  0  0  0  0  0  0  0  0  0
   19.2628   19.8220   26.4084 H   0  0  0  0  0  0  0  0  0  0  0  0
   19.7190   18.2865   27.1637 H   0  0  0  0  0  0  0  0  0  0  0  0
   21.3340   19.3520   26.2948 N   0  3  0  0  0  0  0  0  0  0  0  0
   21.5854   19.8410   27.1609 H   0  0  0  0  0  0  0  0  0  0  0  0
   21.5455   19.9874   25.5194 H   0  0  0  0  0  0  0  0  0  0  0  0
   21.9657   18.5489   26.2104 H   0  0  0  0  0  0  0  0  0  0  0  0
  1  2  1  0  0  0  0
  1  3  1  0  0  0  0
  1  4  1  0  0  0  0
  1  5  1  0  0  0  0
  5  6  1  0  0  0  0
  5  7  1  0  0  0  0
  5  8  1  0  0  0  0
  8  9  1  0  0  0  0
  8 10  1  0  0  0  0
  8 11  1  0  0  0  0
 11 12  1  0  0  0  0
 11 13  1  0  0  0  0
 11 14  1  0  0  0  0
 14 15  1  0  0  0  0
 14 16  1  0  0  0  0
 14 17  1  0  0  0  0
 17 18  1  0  0  0  0
 17 19  1  0  0  0  0
 17 20  1  0  0  0  0
 20 21  1  0  0  0  0
 20 22  1  0  0  0  0
 20 23  1  0  0  0  0
 23 24  1  0  0  0  0
 23 25  1  0  0  0  0
 23 26  1  0  0  0  0
M  END
> <VM2 Rank>
49

> <Conf_Id>
946

> <Probability>
0.58

> <Sum Probability>
81.73

> <Delta G>
1.507

> <G>
49.768

> <E>
16.878

> <-TS>
32.890

> <U+W>
-4.584

> <U>
49.426

> <W>
-54.010

> <W(PB)>
-56.293

> <W(SA)>
2.284

> <Valence>
3.214

> <Coulomb>
45.444

> <VdW>
0.768

> <VdW6>
-7.916

> <VdW12>
8.684

> <Bond>
0.230

> <Angle>
1.078

> <Pdih>
1.906

> <Idih>
0.000

> <Tether>
0.000

$$$$
VeraChem MOL file


 26 25  0  0  0  0  0  0  0  0999 V2000     
   19.4716   19.4758   19.6490 C   0  0  0  0  0  0  0  0  0  0  0  0
   19.9055   20.4368   19.9521 H   0  0  0  0  0  0  0  0  0  0  0  0
   19.5316   19.4170   18.5546 H   0  0  0  0  0  0  0  0  0  0  0  0
   18.4098   19.4741   19.9277 H   0  0  0  0  0  0  0  0  0  0  0  0
   20.2179   18.2872   20.2963 C   0  0  0  0  0  0  0  0  0  0  0  0
   21.2817   18.3261   20.0235 H   0  0  0  0  0  0  0  0  0  0  0  0
   19.8266   17.3507   19.8747 H   0  0  0  0  0  0  0  0  0  0  0  0
   20.0734   18.2376   21.8364 C   0  0  0  0  0  0  0  0  0  0  0  0
   19.0086   18.1681   22.0946 H   0  0  0  0  0  0  0  0  0  0  0  0
   20.5435   17.3142   22.2017 H   0  0  0  0  0  0  0  0  0  0  0  0
   20.7172   19.4519   22.5524 C   0  0  0  0  0  0  0  0  0  0  0  0
   20.1796   20.3725   22.2896 H   0  0  0  0  0  0  0  0  0  0  0  0
   21.7459   19.5787   22.1880 H   0  0  0  0  0  0  0  0  0  0  0  0
   20.7556   19.3073   24.0935 C   0  0  0  0  0  0  0  0  0  0  0  0
   21.3219   18.4046   24.3589 H   0  0  0  0  0  0  0  0  0  0  0  0
   21.3143   20.1572   24.5096 H   0  0  0  0  0  0  0  0  0  0  0  0
   19.3496   19.2628   24.7422 C   0  0  0  0  0  0  0  0  0  0  0  0
   18.8070   18.3647   24.4211 H   0  0  0  0  0  0  0  0  0  0  0  0
   18.7629   20.1253   24.3990 H   0  0  0  0  0  0  0  0  0  0  0  0
   19.4073   19.2934   26.2816 C   0  0  0  0  0  0  0  0  0  0  0  0
   19.9444   20.1865   26.6121 H   0  0  0  0  0  0  0  0  0  0  0  0
   18.3910   19.3387   26.6822 H   0  0  0  0  0  0  0  0  0  0  0  0
   20.0884   18.0830   26.8897 N   0  3  0  0  0  0  0  0  0  0  0  0
   20.1011   18.1281   27.9144 H   0  0  0  0  0  0  0  0  0  0  0  0
   21.0619   18.0006   26.5809 H   0  0  0  0  0  0  0  0  0  0  0  0
   19.6141   17.2108   26.6341 H   0  0  0  0  0  0  0  0  0  0  0  0
  1  2  1  0  0  0  0
  1  3  1  0  0  0  0
  1  4  1  0  0  0  0
  1  5  1  0  0  0  0
  5  6  1  0  0  0  0
  5  7  1  0  0  0  0
  5  8  1  0  0  0  0
  8  9  1  0  0  0  0
  8 10  1  0  0  0  0
  8 11  1  0  0  0  0
 11 12  1  0  0  0  0
 11 13  1  0  0  0  0
 11 14  1  0  0  0  0
 14 15  1  0  0  0  0
 14 16  1  0  0  0  0
 14 17  1  0  0  0  0
 17 18  1  0  0  0  0
 17 19  1  0  0  0  0
 17 20  1  0  0  0  0
 20 21  1  0  0  0  0
 20 22  1  0  0  0  0
 20 23  1  0  0  0  0
 23 24  1  0  0  0  0
 23 25  1  0  0  0  0
 23 26  1  0  0  0  0
M  END
> <VM2 Rank>
50

> <Conf_Id>
1278

> <Probability>
0.57

> <Sum Probability>
82.30

> <Delta G>
1.514

> <G>
49.775

> <E>
17.074

> <-TS>
32.701

> <U+W>
-4.388

> <U>
49.228

> <W>
-53.616

> <W(PB)>
-55.904

> <W(SA)>
2.288

> <Valence>
3.267

> <Coulomb>
45.067

> <VdW>
0.893

> <VdW6>
-7.615

> <VdW12>
8.509

> <Bond>
0.224

> <Angle>
0.867

> <Pdih>
2.176

> <Idih>
0.000

> <Tether>
0.000

$$$$
VeraChem MOL file


 26 25  0  0  0  0  0  0  0  0999 V2000     
   18.6705   19.4656   20.2867 C   0  0  0  0  0  0  0  0  0  0  0  0
   18.6698   20.5458   20.4823 H   0  0  0  0  0  0  0  0  0  0  0  0
   18.1933   19.3008   19.3120 H   0  0  0  0  0  0  0  0  0  0  0  0
   18.0463   18.9778   21.0455 H   0  0  0  0  0  0  0  0  0  0  0  0
   20.1096   18.9017   20.2863 C   0  0  0  0  0  0  0  0  0  0  0  0
   20.6565   19.3284   19.4339 H   0  0  0  0  0  0  0  0  0  0  0  0
   20.0810   17.8157   20.1204 H   0  0  0  0  0  0  0  0  0  0  0  0
   20.8932   19.2125   21.5844 C   0  0  0  0  0  0  0  0  0  0  0  0
   21.9314   18.8778   21.4529 H   0  0  0  0  0  0  0  0  0  0  0  0
   20.9359   20.3000   21.7353 H   0  0  0  0  0  0  0  0  0  0  0  0
   20.2982   18.5337   22.8414 C   0  0  0  0  0  0  0  0  0  0  0  0
   20.2141   17.4521   22.6682 H   0  0  0  0  0  0  0  0  0  0  0  0
   19.2824   18.9097   23.0153 H   0  0  0  0  0  0  0  0  0  0  0  0
   21.1683   18.7893   24.0955 C   0  0  0  0  0  0  0  0  0  0  0  0
   22.1936   18.4468   23.8987 H   0  0  0  0  0  0  0  0  0  0  0  0
   21.2389   19.8688   24.2846 H   0  0  0  0  0  0  0  0  0  0  0  0
   20.6425   18.0655   25.3605 C   0  0  0  0  0  0  0  0  0  0  0  0
   21.3281   18.2537   26.1974 H   0  0  0  0  0  0  0  0  0  0  0  0
   20.6589   16.9809   25.1898 H   0  0  0  0  0  0  0  0  0  0  0  0
   19.2157   18.4793   25.7747 C   0  0  0  0  0  0  0  0  0  0  0  0
   18.5152   18.2519   24.9671 H   0  0  0  0  0  0  0  0  0  0  0  0
   18.9137   17.9076   26.6564 H   0  0  0  0  0  0  0  0  0  0  0  0
   19.0830   19.9513   26.1116 N   0  3  0  0  0  0  0  0  0  0  0  0
   19.3239   20.5445   25.3115 H   0  0  0  0  0  0  0  0  0  0  0  0
   19.6983   20.2211   26.8858 H   0  0  0  0  0  0  0  0  0  0  0  0
   18.1261   20.1939   26.3903 H   0  0  0  0  0  0  0  0  0  0  0  0
  1  2  1  0  0  0  0
  1  3  1  0  0  0  0
  1  4  1  0  0  0  0
  1  5  1  0  0  0  0
  5  6  1  0  0  0  0
  5  7  1  0  0  0  0
  5  8  1  0  0  0  0
  8  9  1  0  0  0  0
  8 10  1  0  0  0  0
  8 11  1  0  0  0  0
 11 12  1  0  0  0  0
 11 13  1  0  0  0  0
 11 14  1  0  0  0  0
 14 15  1  0  0  0  0
 14 16  1  0  0  0  0
 14 17  1  0  0  0  0
 17 18  1  0  0  0  0
 17 19  1  0  0  0  0
 17 20  1  0  0  0  0
 20 21  1  0  0  0  0
 20 22  1  0  0  0  0
 20 23  1  0  0  0  0
 23 24  1  0  0  0  0
 23 25  1  0  0  0  0
 23 26  1  0  0  0  0
M  END
> <VM2 Rank>
51

> <Conf_Id>
1551

> <Probability>
0.57

> <Sum Probability>
82.87

> <Delta G>
1.522

> <G>
49.783

> <E>
17.034

> <-TS>
32.748

> <U+W>
-4.428

> <U>
49.414

> <W>
-53.841

> <W(PB)>
-56.137

> <W(SA)>
2.296

> <Valence>
3.043

> <Coulomb>
45.606

> <VdW>
0.764

> <VdW6>
-7.758

> <VdW12>
8.522

> <Bond>
0.212

> <Angle>
0.867

> <Pdih>
1.964

> <Idih>
0.000

> <Tether>
0.000

$$$$
VeraChem MOL file


 26 25  0  0  0  0  0  0  0  0999 V2000     
   20.1758   20.4610   20.3370 C   0  0  0  0  0  0  0  0  0  0  0  0
   19.1739   20.8792   20.4993 H   0  0  0  0  0  0  0  0  0  0  0  0
   20.8330   20.8202   21.1386 H   0  0  0  0  0  0  0  0  0  0  0  0
   20.5589   20.8651   19.3910 H   0  0  0  0  0  0  0  0  0  0  0  0
   20.1322   18.9168   20.2870 C   0  0  0  0  0  0  0  0  0  0  0  0
   21.1496   18.5223   20.1558 H   0  0  0  0  0  0  0  0  0  0  0  0
   19.5657   18.6075   19.3974 H   0  0  0  0  0  0  0  0  0  0  0  0
   19.4802   18.2783   21.5371 C   0  0  0  0  0  0  0  0  0  0  0  0
   18.4567   18.6607   21.6525 H   0  0  0  0  0  0  0  0  0  0  0  0
   19.3887   17.1965   21.3679 H   0  0  0  0  0  0  0  0  0  0  0  0
   20.2783   18.5205   22.8407 C   0  0  0  0  0  0  0  0  0  0  0  0
   20.3211   19.5966   23.0500 H   0  0  0  0  0  0  0  0  0  0  0  0
   21.3138   18.1793   22.7047 H   0  0  0  0  0  0  0  0  0  0  0  0
   19.6455   17.7821   24.0445 C   0  0  0  0  0  0  0  0  0  0  0  0
   18.6165   18.1344   24.1969 H   0  0  0  0  0  0  0  0  0  0  0  0
   19.5695   16.7112   23.8110 H   0  0  0  0  0  0  0  0  0  0  0  0
   20.4575   17.9431   25.3543 C   0  0  0  0  0  0  0  0  0  0  0  0
   21.4564   17.5084   25.2163 H   0  0  0  0  0  0  0  0  0  0  0  0
   19.9780   17.3607   26.1522 H   0  0  0  0  0  0  0  0  0  0  0  0
   20.6144   19.4045   25.8215 C   0  0  0  0  0  0  0  0  0  0  0  0
   21.2171   19.4311   26.7334 H   0  0  0  0  0  0  0  0  0  0  0  0
   21.1343   19.9845   25.0547 H   0  0  0  0  0  0  0  0  0  0  0  0
   19.2970   20.0927   26.1189 N   0  3  0  0  0  0  0  0  0  0  0  0
   19.4343   21.0591   26.4343 H   0  0  0  0  0  0  0  0  0  0  0  0
   18.7729   19.6087   26.8551 H   0  0  0  0  0  0  0  0  0  0  0  0
   18.6946   20.1282   25.2908 H   0  0  0  0  0  0  0  0  0  0  0  0
  1  2  1  0  0  0  0
  1  3  1  0  0  0  0
  1  4  1  0  0  0  0
  1  5  1  0  0  0  0
  5  6  1  0  0  0  0
  5  7  1  0  0  0  0
  5  8  1  0  0  0  0
  8  9  1  0  0  0  0
  8 10  1  0  0  0  0
  8 11  1  0  0  0  0
 11 12  1  0  0  0  0
 11 13  1  0  0  0  0
 11 14  1  0  0  0  0
 14 15  1  0  0  0  0
 14 16  1  0  0  0  0
 14 17  1  0  0  0  0
 17 18  1  0  0  0  0
 17 19  1  0  0  0  0
 17 20  1  0  0  0  0
 20 21  1  0  0  0  0
 20 22  1  0  0  0  0
 20 23  1  0  0  0  0
 23 24  1  0  0  0  0
 23 25  1  0  0  0  0
 23 26  1  0  0  0  0
M  END
> <VM2 Rank>
52

> <Conf_Id>
1631

> <Probability>
0.56

> <Sum Probability>
83.43

> <Delta G>
1.526

> <G>
49.787

> <E>
17.039

> <-TS>
32.748

> <U+W>
-4.423

> <U>
49.413

> <W>
-53.836

> <W(PB)>
-56.107

> <W(SA)>
2.271

> <Valence>
3.043

> <Coulomb>
45.606

> <VdW>
0.764

> <VdW6>
-7.758

> <VdW12>
8.522

> <Bond>
0.212

> <Angle>
0.867

> <Pdih>
1.964

> <Idih>
0.000

> <Tether>
0.000

$$$$
VeraChem MOL file


 26 25  0  0  0  0  0  0  0  0999 V2000     
   19.4579   19.9959   20.2036 C   0  0  0  0  0  0  0  0  0  0  0  0
   18.9883   19.3133   19.4834 H   0  0  0  0  0  0  0  0  0  0  0  0
   18.7503   20.1713   21.0235 H   0  0  0  0  0  0  0  0  0  0  0  0
   19.6227   20.9562   19.6983 H   0  0  0  0  0  0  0  0  0  0  0  0
   20.7949   19.4209   20.7231 C   0  0  0  0  0  0  0  0  0  0  0  0
   21.2353   20.1104   21.4557 H   0  0  0  0  0  0  0  0  0  0  0  0
   21.5081   19.3747   19.8883 H   0  0  0  0  0  0  0  0  0  0  0  0
   20.6600   18.0030   21.3349 C   0  0  0  0  0  0  0  0  0  0  0  0
   20.3350   17.3073   20.5492 H   0  0  0  0  0  0  0  0  0  0  0  0
   21.6543   17.6574   21.6495 H   0  0  0  0  0  0  0  0  0  0  0  0
   19.6840   17.8886   22.5344 C   0  0  0  0  0  0  0  0  0  0  0  0
   19.6634   16.8406   22.8636 H   0  0  0  0  0  0  0  0  0  0  0  0
   18.6618   18.1225   22.2086 H   0  0  0  0  0  0  0  0  0  0  0  0
   20.0703   18.7859   23.7345 C   0  0  0  0  0  0  0  0  0  0  0  0
   21.1105   18.5798   24.0197 H   0  0  0  0  0  0  0  0  0  0  0  0
   20.0209   19.8429   23.4413 H   0  0  0  0  0  0  0  0  0  0  0  0
   19.1362   18.5545   24.9457 C   0  0  0  0  0  0  0  0  0  0  0  0
   19.1999   17.5094   25.2768 H   0  0  0  0  0  0  0  0  0  0  0  0
   18.0953   18.7233   24.6390 H   0  0  0  0  0  0  0  0  0  0  0  0
   19.4535   19.4889   26.1291 C   0  0  0  0  0  0  0  0  0  0  0  0
   19.3961   20.5304   25.8015 H   0  0  0  0  0  0  0  0  0  0  0  0
   18.7124   19.3385   26.9188 H   0  0  0  0  0  0  0  0  0  0  0  0
   20.8243   19.2613   26.7356 N   0  3  0  0  0  0  0  0  0  0  0  0
   20.9992   19.8894   27.5276 H   0  0  0  0  0  0  0  0  0  0  0  0
   21.5724   19.4221   26.0542 H   0  0  0  0  0  0  0  0  0  0  0  0
   20.9320   18.3032   27.0840 H   0  0  0  0  0  0  0  0  0  0  0  0
  1  2  1  0  0  0  0
  1  3  1  0  0  0  0
  1  4  1  0  0  0  0
  1  5  1  0  0  0  0
  5  6  1  0  0  0  0
  5  7  1  0  0  0  0
  5  8  1  0  0  0  0
  8  9  1  0  0  0  0
  8 10  1  0  0  0  0
  8 11  1  0  0  0  0
 11 12  1  0  0  0  0
 11 13  1  0  0  0  0
 11 14  1  0  0  0  0
 14 15  1  0  0  0  0
 14 16  1  0  0  0  0
 14 17  1  0  0  0  0
 17 18  1  0  0  0  0
 17 19  1  0  0  0  0
 17 20  1  0  0  0  0
 20 21  1  0  0  0  0
 20 22  1  0  0  0  0
 20 23  1  0  0  0  0
 23 24  1  0  0  0  0
 23 25  1  0  0  0  0
 23 26  1  0  0  0  0
M  END
> <VM2 Rank>
53

> <Conf_Id>
1305

> <Probability>
0.54

> <Sum Probability>
83.98

> <Delta G>
1.550

> <G>
49.811

> <E>
16.923

> <-TS>
32.887

> <U+W>
-4.538

> <U>
49.147

> <W>
-53.686

> <W(PB)>
-55.961

> <W(SA)>
2.275

> <Valence>
3.219

> <Coulomb>
45.149

> <VdW>
0.779

> <VdW6>
-7.884

> <VdW12>
8.664

> <Bond>
0.228

> <Angle>
1.077

> <Pdih>
1.914

> <Idih>
0.000

> <Tether>
0.000

$$$$
VeraChem MOL file


 26 25  0  0  0  0  0  0  0  0999 V2000     
   19.1294   19.0842   19.5797 C   0  0  0  0  0  0  0  0  0  0  0  0
   18.9934   18.4350   18.7050 H   0  0  0  0  0  0  0  0  0  0  0  0
   18.1345   19.3717   19.9438 H   0  0  0  0  0  0  0  0  0  0  0  0
   19.6478   19.9931   19.2475 H   0  0  0  0  0  0  0  0  0  0  0  0
   19.9336   18.3571   20.6782 C   0  0  0  0  0  0  0  0  0  0  0  0
   20.9089   18.0517   20.2738 H   0  0  0  0  0  0  0  0  0  0  0  0
   19.4073   17.4362   20.9662 H   0  0  0  0  0  0  0  0  0  0  0  0
   20.1402   19.2499   21.9216 C   0  0  0  0  0  0  0  0  0  0  0  0
   20.6684   20.1681   21.6296 H   0  0  0  0  0  0  0  0  0  0  0  0
   19.1597   19.5551   22.3100 H   0  0  0  0  0  0  0  0  0  0  0  0
   20.9424   18.5205   23.0257 C   0  0  0  0  0  0  0  0  0  0  0  0
   21.8901   18.1619   22.6009 H   0  0  0  0  0  0  0  0  0  0  0  0
   20.3967   17.6236   23.3479 H   0  0  0  0  0  0  0  0  0  0  0  0
   21.2642   19.4155   24.2504 C   0  0  0  0  0  0  0  0  0  0  0  0
   21.8804   18.8422   24.9560 H   0  0  0  0  0  0  0  0  0  0  0  0
   21.8914   20.2567   23.9245 H   0  0  0  0  0  0  0  0  0  0  0  0
   20.0234   19.9761   24.9938 C   0  0  0  0  0  0  0  0  0  0  0  0
   19.4967   20.6899   24.3475 H   0  0  0  0  0  0  0  0  0  0  0  0
   20.3562   20.5527   25.8670 H   0  0  0  0  0  0  0  0  0  0  0  0
   19.0274   18.8931   25.4547 C   0  0  0  0  0  0  0  0  0  0  0  0
   18.1702   19.3694   25.9382 H   0  0  0  0  0  0  0  0  0  0  0  0
   18.6624   18.3352   24.5884 H   0  0  0  0  0  0  0  0  0  0  0  0
   19.6204   17.9026   26.4369 N   0  3  0  0  0  0  0  0  0  0  0  0
   20.4176   17.4018   26.0325 H   0  0  0  0  0  0  0  0  0  0  0  0
   18.9354   17.1966   26.7273 H   0  0  0  0  0  0  0  0  0  0  0  0
   19.9537   18.3653   27.2888 H   0  0  0  0  0  0  0  0  0  0  0  0
  1  2  1  0  0  0  0
  1  3  1  0  0  0  0
  1  4  1  0  0  0  0
  1  5  1  0  0  0  0
  5  6  1  0  0  0  0
  5  7  1  0  0  0  0
  5  8  1  0  0  0  0
  8  9  1  0  0  0  0
  8 10  1  0  0  0  0
  8 11  1  0  0  0  0
 11 12  1  0  0  0  0
 11 13  1  0  0  0  0
 11 14  1  0  0  0  0
 14 15  1  0  0  0  0
 14 16  1  0  0  0  0
 14 17  1  0  0  0  0
 17 18  1  0  0  0  0
 17 19  1  0  0  0  0
 17 20  1  0  0  0  0
 20 21  1  0  0  0  0
 20 22  1  0  0  0  0
 20 23  1  0  0  0  0
 23 24  1  0  0  0  0
 23 25  1  0  0  0  0
 23 26  1  0  0  0  0
M  END
> <VM2 Rank>
54

> <Conf_Id>
266

> <Probability>
0.54

> <Sum Probability>
84.51

> <Delta G>
1.553

> <G>
49.814

> <E>
16.914

> <-TS>
32.900

> <U+W>
-4.548

> <U>
49.197

> <W>
-53.745

> <W(PB)>
-56.033

> <W(SA)>
2.288

> <Valence>
3.018

> <Coulomb>
45.589

> <VdW>
0.590

> <VdW6>
-8.073

> <VdW12>
8.662

> <Bond>
0.222

> <Angle>
0.958

> <Pdih>
1.839

> <Idih>
0.000

> <Tether>
0.000

$$$$
VeraChem MOL file


 26 25  0  0  0  0  0  0  0  0999 V2000     
   19.7733   17.5957   20.4516 C   0  0  0  0  0  0  0  0  0  0  0  0
   18.9975   16.9605   20.0049 H   0  0  0  0  0  0  0  0  0  0  0  0
   20.6163   17.6406   19.7500 H   0  0  0  0  0  0  0  0  0  0  0  0
   20.1156   17.1025   21.3699 H   0  0  0  0  0  0  0  0  0  0  0  0
   19.2164   19.0079   20.7413 C   0  0  0  0  0  0  0  0  0  0  0  0
   18.3883   18.9398   21.4593 H   0  0  0  0  0  0  0  0  0  0  0  0
   18.7795   19.4120   19.8175 H   0  0  0  0  0  0  0  0  0  0  0  0
   20.2904   20.0012   21.2539 C   0  0  0  0  0  0  0  0  0  0  0  0
   21.0414   20.1490   20.4657 H   0  0  0  0  0  0  0  0  0  0  0  0
   19.8200   20.9821   21.4081 H   0  0  0  0  0  0  0  0  0  0  0  0
   21.0159   19.5797   22.5580 C   0  0  0  0  0  0  0  0  0  0  0  0
   21.7585   20.3512   22.8038 H   0  0  0  0  0  0  0  0  0  0  0  0
   21.5855   18.6565   22.3878 H   0  0  0  0  0  0  0  0  0  0  0  0
   20.0640   19.3933   23.7637 C   0  0  0  0  0  0  0  0  0  0  0  0
   19.4663   20.3047   23.9036 H   0  0  0  0  0  0  0  0  0  0  0  0
   19.3610   18.5774   23.5543 H   0  0  0  0  0  0  0  0  0  0  0  0
   20.8419   19.0822   25.0642 C   0  0  0  0  0  0  0  0  0  0  0  0
   21.5663   19.8850   25.2560 H   0  0  0  0  0  0  0  0  0  0  0  0
   21.4229   18.1582   24.9432 H   0  0  0  0  0  0  0  0  0  0  0  0
   19.9210   18.9538   26.2929 C   0  0  0  0  0  0  0  0  0  0  0  0
   20.5308   18.8214   27.1908 H   0  0  0  0  0  0  0  0  0  0  0  0
   19.3349   19.8693   26.4110 H   0  0  0  0  0  0  0  0  0  0  0  0
   18.9581   17.7852   26.2153 N   0  3  0  0  0  0  0  0  0  0  0  0
   18.3701   17.7205   27.0533 H   0  0  0  0  0  0  0  0  0  0  0  0
   19.4514   16.8909   26.1260 H   0  0  0  0  0  0  0  0  0  0  0  0
   18.3274   17.8656   25.4117 H   0  0  0  0  0  0  0  0  0  0  0  0
  1  2  1  0  0  0  0
  1  3  1  0  0  0  0
  1  4  1  0  0  0  0
  1  5  1  0  0  0  0
  5  6  1  0  0  0  0
  5  7  1  0  0  0  0
  5  8  1  0  0  0  0
  8  9  1  0  0  0  0
  8 10  1  0  0  0  0
  8 11  1  0  0  0  0
 11 12  1  0  0  0  0
 11 13  1  0  0  0  0
 11 14  1  0  0  0  0
 14 15  1  0  0  0  0
 14 16  1  0  0  0  0
 14 17  1  0  0  0  0
 17 18  1  0  0  0  0
 17 19  1  0  0  0  0
 17 20  1  0  0  0  0
 20 21  1  0  0  0  0
 20 22  1  0  0  0  0
 20 23  1  0  0  0  0
 23 24  1  0  0  0  0
 23 25  1  0  0  0  0
 23 26  1  0  0  0  0
M  END
> <VM2 Rank>
55

> <Conf_Id>
667

> <Probability>
0.52

> <Sum Probability>
85.03

> <Delta G>
1.576

> <G>
49.837

> <E>
16.947

> <-TS>
32.890

> <U+W>
-4.515

> <U>
49.426

> <W>
-53.941

> <W(PB)>
-56.205

> <W(SA)>
2.264

> <Valence>
3.214

> <Coulomb>
45.444

> <VdW>
0.769

> <VdW6>
-7.916

> <VdW12>
8.684

> <Bond>
0.230

> <Angle>
1.078

> <Pdih>
1.906

> <Idih>
0.000

> <Tether>
0.000

$$$$
VeraChem MOL file


 26 25  0  0  0  0  0  0  0  0999 V2000     
   21.0183   19.4050   19.7602 C   0  0  0  0  0  0  0  0  0  0  0  0
   21.2144   20.4361   20.0817 H   0  0  0  0  0  0  0  0  0  0  0  0
   21.7876   18.7561   20.1969 H   0  0  0  0  0  0  0  0  0  0  0  0
   21.1337   19.3658   18.6693 H   0  0  0  0  0  0  0  0  0  0  0  0
   19.5976   18.9557   20.1704 C   0  0  0  0  0  0  0  0  0  0  0  0
   19.4356   17.9139   19.8604 H   0  0  0  0  0  0  0  0  0  0  0  0
   18.8620   19.5582   19.6194 H   0  0  0  0  0  0  0  0  0  0  0  0
   19.3228   19.0997   21.6867 C   0  0  0  0  0  0  0  0  0  0  0  0
   19.4571   20.1501   21.9764 H   0  0  0  0  0  0  0  0  0  0  0  0
   18.2680   18.8568   21.8751 H   0  0  0  0  0  0  0  0  0  0  0  0
   20.2179   18.1860   22.5616 C   0  0  0  0  0  0  0  0  0  0  0  0
   21.2676   18.4981   22.4812 H   0  0  0  0  0  0  0  0  0  0  0  0
   20.1690   17.1598   22.1722 H   0  0  0  0  0  0  0  0  0  0  0  0
   19.8067   18.1639   24.0544 C   0  0  0  0  0  0  0  0  0  0  0  0
   18.7619   17.8355   24.1436 H   0  0  0  0  0  0  0  0  0  0  0  0
   20.4134   17.4043   24.5648 H   0  0  0  0  0  0  0  0  0  0  0  0
   19.9868   19.5293   24.7644 C   0  0  0  0  0  0  0  0  0  0  0  0
   19.3527   20.2845   24.2838 H   0  0  0  0  0  0  0  0  0  0  0  0
   21.0236   19.8751   24.6585 H   0  0  0  0  0  0  0  0  0  0  0  0
   19.6128   19.4759   26.2584 C   0  0  0  0  0  0  0  0  0  0  0  0
   19.6662   20.4829   26.6810 H   0  0  0  0  0  0  0  0  0  0  0  0
   18.5868   19.1143   26.3684 H   0  0  0  0  0  0  0  0  0  0  0  0
   20.5181   18.5835   27.0848 N   0  3  0  0  0  0  0  0  0  0  0  0
   21.4963   18.8869   27.0394 H   0  0  0  0  0  0  0  0  0  0  0  0
   20.4874   17.6105   26.7650 H   0  0  0  0  0  0  0  0  0  0  0  0
   20.2505   18.5824   28.0751 H   0  0  0  0  0  0  0  0  0  0  0  0
  1  2  1  0  0  0  0
  1  3  1  0  0  0  0
  1  4  1  0  0  0  0
  1  5  1  0  0  0  0
  5  6  1  0  0  0  0
  5  7  1  0  0  0  0
  5  8  1  0  0  0  0
  8  9  1  0  0  0  0
  8 10  1  0  0  0  0
  8 11  1  0  0  0  0
 11 12  1  0  0  0  0
 11 13  1  0  0  0  0
 11 14  1  0  0  0  0
 14 15  1  0  0  0  0
 14 16  1  0  0  0  0
 14 17  1  0  0  0  0
 17 18  1  0  0  0  0
 17 19  1  0  0  0  0
 17 20  1  0  0  0  0
 20 21  1  0  0  0  0
 20 22  1  0  0  0  0
 20 23  1  0  0  0  0
 23 24  1  0  0  0  0
 23 25  1  0  0  0  0
 23 26  1  0  0  0  0
M  END
> <VM2 Rank>
56

> <Conf_Id>
205

> <Probability>
0.52

> <Sum Probability>
85.55

> <Delta G>
1.578

> <G>
49.839

> <E>
17.164

> <-TS>
32.675

> <U+W>
-4.298

> <U>
49.153

> <W>
-53.451

> <W(PB)>
-55.735

> <W(SA)>
2.284

> <Valence>
3.298

> <Coulomb>
44.906

> <VdW>
0.948

> <VdW6>
-7.574

> <VdW12>
8.522

> <Bond>
0.229

> <Angle>
0.912

> <Pdih>
2.157

> <Idih>
0.000

> <Tether>
0.000

$$$$
VeraChem MOL file


 26 25  0  0  0  0  0  0  0  0999 V2000     
   19.5727   19.3764   19.4727 C   0  0  0  0  0  0  0  0  0  0  0  0
   19.8881   20.3898   19.7496 H   0  0  0  0  0  0  0  0  0  0  0  0
   19.8089   19.2373   18.4097 H   0  0  0  0  0  0  0  0  0  0  0  0
   18.4827   19.3117   19.5852 H   0  0  0  0  0  0  0  0  0  0  0  0
   20.2847   18.3044   20.3289 C   0  0  0  0  0  0  0  0  0  0  0  0
   21.3736   18.4120   20.2266 H   0  0  0  0  0  0  0  0  0  0  0  0
   20.0353   17.3116   19.9290 H   0  0  0  0  0  0  0  0  0  0  0  0
   19.8923   18.3479   21.8258 C   0  0  0  0  0  0  0  0  0  0  0  0
   18.8036   18.2369   21.9226 H   0  0  0  0  0  0  0  0  0  0  0  0
   20.3380   17.4740   22.3180 H   0  0  0  0  0  0  0  0  0  0  0  0
   20.3531   19.6402   22.5469 C   0  0  0  0  0  0  0  0  0  0  0  0
   19.9088   20.5129   22.0513 H   0  0  0  0  0  0  0  0  0  0  0  0
   21.4419   19.7509   22.4505 H   0  0  0  0  0  0  0  0  0  0  0  0
   19.9569   19.6875   24.0433 C   0  0  0  0  0  0  0  0  0  0  0  0
   20.2054   20.6830   24.4367 H   0  0  0  0  0  0  0  0  0  0  0  0
   18.8674   19.5823   24.1332 H   0  0  0  0  0  0  0  0  0  0  0  0
   20.6684   18.6161   24.9071 C   0  0  0  0  0  0  0  0  0  0  0  0
   21.7516   18.6702   24.7353 H   0  0  0  0  0  0  0  0  0  0  0  0
   20.3516   17.6088   24.6095 H   0  0  0  0  0  0  0  0  0  0  0  0
   20.4039   18.8011   26.4137 C   0  0  0  0  0  0  0  0  0  0  0  0
   20.9890   18.0696   26.9776 H   0  0  0  0  0  0  0  0  0  0  0  0
   20.7192   19.8013   26.7227 H   0  0  0  0  0  0  0  0  0  0  0  0
   18.9491   18.6255   26.8026 N   0  3  0  0  0  0  0  0  0  0  0  0
   18.8078   18.7441   27.8117 H   0  0  0  0  0  0  0  0  0  0  0  0
   18.5996   17.6930   26.5589 H   0  0  0  0  0  0  0  0  0  0  0  0
   18.3459   19.3077   26.3329 H   0  0  0  0  0  0  0  0  0  0  0  0
  1  2  1  0  0  0  0
  1  3  1  0  0  0  0
  1  4  1  0  0  0  0
  1  5  1  0  0  0  0
  5  6  1  0  0  0  0
  5  7  1  0  0  0  0
  5  8  1  0  0  0  0
  8  9  1  0  0  0  0
  8 10  1  0  0  0  0
  8 11  1  0  0  0  0
 11 12  1  0  0  0  0
 11 13  1  0  0  0  0
 11 14  1  0  0  0  0
 14 15  1  0  0  0  0
 14 16  1  0  0  0  0
 14 17  1  0  0  0  0
 17 18  1  0  0  0  0
 17 19  1  0  0  0  0
 17 20  1  0  0  0  0
 20 21  1  0  0  0  0
 20 22  1  0  0  0  0
 20 23  1  0  0  0  0
 23 24  1  0  0  0  0
 23 25  1  0  0  0  0
 23 26  1  0  0  0  0
M  END
> <VM2 Rank>
57

> <Conf_Id>
1312

> <Probability>
0.50

> <Sum Probability>
86.05

> <Delta G>
1.598

> <G>
49.859

> <E>
17.234

> <-TS>
32.626

> <U+W>
-4.228

> <U>
49.401

> <W>
-53.629

> <W(PB)>
-55.918

> <W(SA)>
2.289

> <Valence>
3.370

> <Coulomb>
45.066

> <VdW>
0.965

> <VdW6>
-7.528

> <VdW12>
8.494

> <Bond>
0.232

> <Angle>
0.963

> <Pdih>
2.174

> <Idih>
0.000

> <Tether>
0.000

$$$$
VeraChem MOL file


 26 25  0  0  0  0  0  0  0  0999 V2000     
   19.3375   18.2964   19.7042 C   0  0  0  0  0  0  0  0  0  0  0  0
   18.2985   18.5128   19.9846 H   0  0  0  0  0  0  0  0  0  0  0  0
   19.3789   18.2083   18.6108 H   0  0  0  0  0  0  0  0  0  0  0  0
   19.6112   17.3206   20.1244 H   0  0  0  0  0  0  0  0  0  0  0  0
   20.2890   19.4117   20.1935 C   0  0  0  0  0  0  0  0  0  0  0  0
   20.0499   20.3417   19.6590 H   0  0  0  0  0  0  0  0  0  0  0  0
   21.3239   19.1593   19.9233 H   0  0  0  0  0  0  0  0  0  0  0  0
   20.1942   19.6745   21.7158 C   0  0  0  0  0  0  0  0  0  0  0  0
   20.8227   20.5419   21.9602 H   0  0  0  0  0  0  0  0  0  0  0  0
   19.1632   19.9563   21.9666 H   0  0  0  0  0  0  0  0  0  0  0  0
   20.6415   18.4654   22.5758 C   0  0  0  0  0  0  0  0  0  0  0  0
   21.6215   18.1179   22.2208 H   0  0  0  0  0  0  0  0  0  0  0  0
   19.9465   17.6267   22.4371 H   0  0  0  0  0  0  0  0  0  0  0  0
   20.7536   18.7887   24.0861 C   0  0  0  0  0  0  0  0  0  0  0  0
   21.1896   17.9164   24.5908 H   0  0  0  0  0  0  0  0  0  0  0  0
   21.4611   19.6163   24.2338 H   0  0  0  0  0  0  0  0  0  0  0  0
   19.3957   19.1393   24.7446 C   0  0  0  0  0  0  0  0  0  0  0  0
   18.6760   18.3265   24.5799 H   0  0  0  0  0  0  0  0  0  0  0  0
   18.9732   20.0342   24.2712 H   0  0  0  0  0  0  0  0  0  0  0  0
   19.5219   19.4159   26.2553 C   0  0  0  0  0  0  0  0  0  0  0  0
   20.2516   20.2124   26.4241 H   0  0  0  0  0  0  0  0  0  0  0  0
   18.5562   19.7507   26.6439 H   0  0  0  0  0  0  0  0  0  0  0  0
   19.9477   18.2072   27.0656 N   0  3  0  0  0  0  0  0  0  0  0  0
   20.0075   18.4221   28.0669 H   0  0  0  0  0  0  0  0  0  0  0  0
   20.8684   17.8619   26.7777 H   0  0  0  0  0  0  0  0  0  0  0  0
   19.2871   17.4296   26.9653 H   0  0  0  0  0  0  0  0  0  0  0  0
  1  2  1  0  0  0  0
  1  3  1  0  0  0  0
  1  4  1  0  0  0  0
  1  5  1  0  0  0  0
  5  6  1  0  0  0  0
  5  7  1  0  0  0  0
  5  8  1  0  0  0  0
  8  9  1  0  0  0  0
  8 10  1  0  0  0  0
  8 11  1  0  0  0  0
 11 12  1  0  0  0  0
 11 13  1  0  0  0  0
 11 14  1  0  0  0  0
 14 15  1  0  0  0  0
 14 16  1  0  0  0  0
 14 17  1  0  0  0  0
 17 18  1  0  0  0  0
 17 19  1  0  0  0  0
 17 20  1  0  0  0  0
 20 21  1  0  0  0  0
 20 22  1  0  0  0  0
 20 23  1  0  0  0  0
 23 24  1  0  0  0  0
 23 25  1  0  0  0  0
 23 26  1  0  0  0  0
M  END
> <VM2 Rank>
58

> <Conf_Id>
713

> <Probability>
0.50

> <Sum Probability>
86.54

> <Delta G>
1.603

> <G>
49.864

> <E>
17.189

> <-TS>
32.675

> <U+W>
-4.273

> <U>
49.153

> <W>
-53.426

> <W(PB)>
-55.726

> <W(SA)>
2.300

> <Valence>
3.298

> <Coulomb>
44.906

> <VdW>
0.948

> <VdW6>
-7.574

> <VdW12>
8.522

> <Bond>
0.229

> <Angle>
0.912

> <Pdih>
2.157

> <Idih>
0.000

> <Tether>
0.000

$$$$
VeraChem MOL file


 26 25  0  0  0  0  0  0  0  0999 V2000     
   19.6024   20.0066   19.7417 C   0  0  0  0  0  0  0  0  0  0  0  0
   18.5481   20.2002   19.9787 H   0  0  0  0  0  0  0  0  0  0  0  0
   20.0422   20.9421   19.3723 H   0  0  0  0  0  0  0  0  0  0  0  0
   19.6405   19.2719   18.9268 H   0  0  0  0  0  0  0  0  0  0  0  0
   20.3656   19.4988   20.9834 C   0  0  0  0  0  0  0  0  0  0  0  0
   20.3392   20.2751   21.7596 H   0  0  0  0  0  0  0  0  0  0  0  0
   21.4219   19.3425   20.7238 H   0  0  0  0  0  0  0  0  0  0  0  0
   19.7610   18.1822   21.5254 C   0  0  0  0  0  0  0  0  0  0  0  0
   18.7174   18.3476   21.8238 H   0  0  0  0  0  0  0  0  0  0  0  0
   19.7268   17.4445   20.7119 H   0  0  0  0  0  0  0  0  0  0  0  0
   20.5609   17.5694   22.7042 C   0  0  0  0  0  0  0  0  0  0  0  0
   21.5626   17.2931   22.3470 H   0  0  0  0  0  0  0  0  0  0  0  0
   20.0801   16.6283   23.0047 H   0  0  0  0  0  0  0  0  0  0  0  0
   20.7119   18.4770   23.9527 C   0  0  0  0  0  0  0  0  0  0  0  0
   21.3067   17.9317   24.6972 H   0  0  0  0  0  0  0  0  0  0  0  0
   21.2953   19.3718   23.6983 H   0  0  0  0  0  0  0  0  0  0  0  0
   19.3593   18.8955   24.5815 C   0  0  0  0  0  0  0  0  0  0  0  0
   18.7632   18.0048   24.8202 H   0  0  0  0  0  0  0  0  0  0  0  0
   18.7781   19.4786   23.8563 H   0  0  0  0  0  0  0  0  0  0  0  0
   19.5336   19.7534   25.8496 C   0  0  0  0  0  0  0  0  0  0  0  0
   20.1429   20.6315   25.6192 H   0  0  0  0  0  0  0  0  0  0  0  0
   18.5537   20.0986   26.1905 H   0  0  0  0  0  0  0  0  0  0  0  0
   20.1863   19.0161   27.0025 N   0  3  0  0  0  0  0  0  0  0  0  0
   20.2735   19.6106   27.8340 H   0  0  0  0  0  0  0  0  0  0  0  0
   21.1294   18.6952   26.7632 H   0  0  0  0  0  0  0  0  0  0  0  0
   19.6463   18.1901   27.2805 H   0  0  0  0  0  0  0  0  0  0  0  0
  1  2  1  0  0  0  0
  1  3  1  0  0  0  0
  1  4  1  0  0  0  0
  1  5  1  0  0  0  0
  5  6  1  0  0  0  0
  5  7  1  0  0  0  0
  5  8  1  0  0  0  0
  8  9  1  0  0  0  0
  8 10  1  0  0  0  0
  8 11  1  0  0  0  0
 11 12  1  0  0  0  0
 11 13  1  0  0  0  0
 11 14  1  0  0  0  0
 14 15  1  0  0  0  0
 14 16  1  0  0  0  0
 14 17  1  0  0  0  0
 17 18  1  0  0  0  0
 17 19  1  0  0  0  0
 17 20  1  0  0  0  0
 20 21  1  0  0  0  0
 20 22  1  0  0  0  0
 20 23  1  0  0  0  0
 23 24  1  0  0  0  0
 23 25  1  0  0  0  0
 23 26  1  0  0  0  0
M  END
> <VM2 Rank>
59

> <Conf_Id>
428

> <Probability>
0.49

> <Sum Probability>
87.03

> <Delta G>
1.612

> <G>
49.873

> <E>
16.983

> <-TS>
32.890

> <U+W>
-4.479

> <U>
49.231

> <W>
-53.710

> <W(PB)>
-55.983

> <W(SA)>
2.273

> <Valence>
3.276

> <Coulomb>
45.175

> <VdW>
0.779

> <VdW6>
-7.944

> <VdW12>
8.723

> <Bond>
0.239

> <Angle>
1.155

> <Pdih>
1.882

> <Idih>
0.000

> <Tether>
0.000

$$$$
VeraChem MOL file


 26 25  0  0  0  0  0  0  0  0999 V2000     
   20.6459   20.3700   20.5103 C   0  0  0  0  0  0  0  0  0  0  0  0
   21.4621   20.6906   21.1706 H   0  0  0  0  0  0  0  0  0  0  0  0
   20.8658   20.7402   19.5006 H   0  0  0  0  0  0  0  0  0  0  0  0
   19.7211   20.8556   20.8454 H   0  0  0  0  0  0  0  0  0  0  0  0
   20.5084   18.8305   20.5037 C   0  0  0  0  0  0  0  0  0  0  0  0
   21.4105   18.3960   20.0509 H   0  0  0  0  0  0  0  0  0  0  0  0
   19.6686   18.5370   19.8584 H   0  0  0  0  0  0  0  0  0  0  0  0
   20.3205   18.2260   21.9159 C   0  0  0  0  0  0  0  0  0  0  0  0
   20.3387   17.1306   21.8330 H   0  0  0  0  0  0  0  0  0  0  0  0
   21.1784   18.5052   22.5418 H   0  0  0  0  0  0  0  0  0  0  0  0
   18.9991   18.6602   22.5986 C   0  0  0  0  0  0  0  0  0  0  0  0
   18.1632   18.4757   21.9098 H   0  0  0  0  0  0  0  0  0  0  0  0
   19.0075   19.7420   22.7828 H   0  0  0  0  0  0  0  0  0  0  0  0
   18.7148   17.9094   23.9251 C   0  0  0  0  0  0  0  0  0  0  0  0
   17.7479   18.2486   24.3219 H   0  0  0  0  0  0  0  0  0  0  0  0
   18.5953   16.8377   23.7144 H   0  0  0  0  0  0  0  0  0  0  0  0
   19.7967   18.0892   25.0190 C   0  0  0  0  0  0  0  0  0  0  0  0
   20.7400   17.6324   24.6933 H   0  0  0  0  0  0  0  0  0  0  0  0
   19.4848   17.5422   25.9187 H   0  0  0  0  0  0  0  0  0  0  0  0
   20.0345   19.5662   25.3846 C   0  0  0  0  0  0  0  0  0  0  0  0
   20.3850   20.1120   24.5046 H   0  0  0  0  0  0  0  0  0  0  0  0
   19.0969   20.0178   25.7198 H   0  0  0  0  0  0  0  0  0  0  0  0
   21.0611   19.7476   26.4838 N   0  3  0  0  0  0  0  0  0  0  0  0
   21.9754   19.3664   26.2197 H   0  0  0  0  0  0  0  0  0  0  0  0
   20.7783   19.2799   27.3513 H   0  0  0  0  0  0  0  0  0  0  0  0
   21.2045   20.7375   26.7116 H   0  0  0  0  0  0  0  0  0  0  0  0
  1  2  1  0  0  0  0
  1  3  1  0  0  0  0
  1  4  1  0  0  0  0
  1  5  1  0  0  0  0
  5  6  1  0  0  0  0
  5  7  1  0  0  0  0
  5  8  1  0  0  0  0
  8  9  1  0  0  0  0
  8 10  1  0  0  0  0
  8 11  1  0  0  0  0
 11 12  1  0  0  0  0
 11 13  1  0  0  0  0
 11 14  1  0  0  0  0
 14 15  1  0  0  0  0
 14 16  1  0  0  0  0
 14 17  1  0  0  0  0
 17 18  1  0  0  0  0
 17 19  1  0  0  0  0
 17 20  1  0  0  0  0
 20 21  1  0  0  0  0
 20 22  1  0  0  0  0
 20 23  1  0  0  0  0
 23 24  1  0  0  0  0
 23 25  1  0  0  0  0
 23 26  1  0  0  0  0
M  END
> <VM2 Rank>
60

> <Conf_Id>
174

> <Probability>
0.47

> <Sum Probability>
87.50

> <Delta G>
1.634

> <G>
49.895

> <E>
17.074

> <-TS>
32.821

> <U+W>
-4.387

> <U>
49.567

> <W>
-53.954

> <W(PB)>
-56.239

> <W(SA)>
2.285

> <Valence>
3.380

> <Coulomb>
45.516

> <VdW>
0.670

> <VdW6>
-8.071

> <VdW12>
8.741

> <Bond>
0.231

> <Angle>
1.069

> <Pdih>
2.080

> <Idih>
0.000

> <Tether>
0.000

$$$$
VeraChem MOL file


 26 25  0  0  0  0  0  0  0  0999 V2000     
   20.4787   19.5128   19.4476 C   0  0  0  0  0  0  0  0  0  0  0  0
   21.4641   19.7578   19.8623 H   0  0  0  0  0  0  0  0  0  0  0  0
   20.6279   19.2073   18.4039 H   0  0  0  0  0  0  0  0  0  0  0  0
   19.8687   20.4255   19.4460 H   0  0  0  0  0  0  0  0  0  0  0  0
   19.7886   18.3843   20.2473 C   0  0  0  0  0  0  0  0  0  0  0  0
   20.4334   17.4946   20.2640 H   0  0  0  0  0  0  0  0  0  0  0  0
   18.8713   18.0888   19.7191 H   0  0  0  0  0  0  0  0  0  0  0  0
   19.4174   18.7895   21.6946 C   0  0  0  0  0  0  0  0  0  0  0  0
   18.7717   19.6781   21.6720 H   0  0  0  0  0  0  0  0  0  0  0  0
   18.8163   17.9803   22.1281 H   0  0  0  0  0  0  0  0  0  0  0  0
   20.6501   19.0608   22.5944 C   0  0  0  0  0  0  0  0  0  0  0  0
   21.2523   19.8653   22.1532 H   0  0  0  0  0  0  0  0  0  0  0  0
   21.2944   18.1712   22.6201 H   0  0  0  0  0  0  0  0  0  0  0  0
   20.2839   19.4784   24.0403 C   0  0  0  0  0  0  0  0  0  0  0  0
   21.2053   19.7956   24.5462 H   0  0  0  0  0  0  0  0  0  0  0  0
   19.6277   20.3594   24.0138 H   0  0  0  0  0  0  0  0  0  0  0  0
   19.6113   18.3499   24.8621 C   0  0  0  0  0  0  0  0  0  0  0  0
   20.2492   17.4562   24.8676 H   0  0  0  0  0  0  0  0  0  0  0  0
   18.6650   18.0580   24.3904 H   0  0  0  0  0  0  0  0  0  0  0  0
   19.3065   18.7723   26.3124 C   0  0  0  0  0  0  0  0  0  0  0  0
   18.6882   19.6740   26.3111 H   0  0  0  0  0  0  0  0  0  0  0  0
   18.7470   17.9762   26.8111 H   0  0  0  0  0  0  0  0  0  0  0  0
   20.5446   19.0510   27.1422 N   0  3  0  0  0  0  0  0  0  0  0  0
   21.1001   19.8176   26.7504 H   0  0  0  0  0  0  0  0  0  0  0  0
   21.1571   18.2309   27.1994 H   0  0  0  0  0  0  0  0  0  0  0  0
   20.3063   19.3145   28.1046 H   0  0  0  0  0  0  0  0  0  0  0  0
  1  2  1  0  0  0  0
  1  3  1  0  0  0  0
  1  4  1  0  0  0  0
  1  5  1  0  0  0  0
  5  6  1  0  0  0  0
  5  7  1  0  0  0  0
  5  8  1  0  0  0  0
  8  9  1  0  0  0  0
  8 10  1  0  0  0  0
  8 11  1  0  0  0  0
 11 12  1  0  0  0  0
 11 13  1  0  0  0  0
 11 14  1  0  0  0  0
 14 15  1  0  0  0  0
 14 16  1  0  0  0  0
 14 17  1  0  0  0  0
 17 18  1  0  0  0  0
 17 19  1  0  0  0  0
 17 20  1  0  0  0  0
 20 21  1  0  0  0  0
 20 22  1  0  0  0  0
 20 23  1  0  0  0  0
 23 24  1  0  0  0  0
 23 25  1  0  0  0  0
 23 26  1  0  0  0  0
M  END
> <VM2 Rank>
61

> <Conf_Id>
803

> <Probability>
0.47

> <Sum Probability>
87.97

> <Delta G>
1.635

> <G>
49.896

> <E>
17.316

> <-TS>
32.579

> <U+W>
-4.146

> <U>
49.323

> <W>
-53.468

> <W(PB)>
-55.770

> <W(SA)>
2.301

> <Valence>
3.408

> <Coulomb>
44.893

> <VdW>
1.022

> <VdW6>
-7.482

> <VdW12>
8.503

> <Bond>
0.238

> <Angle>
1.013

> <Pdih>
2.156

> <Idih>
0.000

> <Tether>
0.000

$$$$
VeraChem MOL file


 26 25  0  0  0  0  0  0  0  0999 V2000     
   19.5766   19.1706   19.2684 C   0  0  0  0  0  0  0  0  0  0  0  0
   20.2105   19.9917   18.9088 H   0  0  0  0  0  0  0  0  0  0  0  0
   19.6009   18.3722   18.5155 H   0  0  0  0  0  0  0  0  0  0  0  0
   18.5447   19.5393   19.3356 H   0  0  0  0  0  0  0  0  0  0  0  0
   20.0681   18.6466   20.6345 C   0  0  0  0  0  0  0  0  0  0  0  0
   21.0908   18.2585   20.5288 H   0  0  0  0  0  0  0  0  0  0  0  0
   19.4363   17.8020   20.9391 H   0  0  0  0  0  0  0  0  0  0  0  0
   20.0385   19.7546   21.7139 C   0  0  0  0  0  0  0  0  0  0  0  0
   20.6078   20.6209   21.3495 H   0  0  0  0  0  0  0  0  0  0  0  0
   19.0068   20.1035   21.8589 H   0  0  0  0  0  0  0  0  0  0  0  0
   20.6346   19.3150   23.0739 C   0  0  0  0  0  0  0  0  0  0  0  0
   20.6949   20.2007   23.7199 H   0  0  0  0  0  0  0  0  0  0  0  0
   21.6672   18.9692   22.9276 H   0  0  0  0  0  0  0  0  0  0  0  0
   19.8094   18.2117   23.7839 C   0  0  0  0  0  0  0  0  0  0  0  0
   18.7697   18.5442   23.9037 H   0  0  0  0  0  0  0  0  0  0  0  0
   19.7728   17.3152   23.1519 H   0  0  0  0  0  0  0  0  0  0  0  0
   20.3944   17.8034   25.1596 C   0  0  0  0  0  0  0  0  0  0  0  0
   21.4068   17.4023   25.0175 H   0  0  0  0  0  0  0  0  0  0  0  0
   19.7966   16.9827   25.5779 H   0  0  0  0  0  0  0  0  0  0  0  0
   20.4571   18.9529   26.1860 C   0  0  0  0  0  0  0  0  0  0  0  0
   20.8983   18.5846   27.1162 H   0  0  0  0  0  0  0  0  0  0  0  0
   21.0928   19.7561   25.8049 H   0  0  0  0  0  0  0  0  0  0  0  0
   19.1021   19.5442   26.5208 N   0  3  0  0  0  0  0  0  0  0  0  0
   18.4665   18.8414   26.9117 H   0  0  0  0  0  0  0  0  0  0  0  0
   18.6468   19.9373   25.6912 H   0  0  0  0  0  0  0  0  0  0  0  0
   19.1757   20.2993   27.2111 H   0  0  0  0  0  0  0  0  0  0  0  0
  1  2  1  0  0  0  0
  1  3  1  0  0  0  0
  1  4  1  0  0  0  0
  1  5  1  0  0  0  0
  5  6  1  0  0  0  0
  5  7  1  0  0  0  0
  5  8  1  0  0  0  0
  8  9  1  0  0  0  0
  8 10  1  0  0  0  0
  8 11  1  0  0  0  0
 11 12  1  0  0  0  0
 11 13  1  0  0  0  0
 11 14  1  0  0  0  0
 14 15  1  0  0  0  0
 14 16  1  0  0  0  0
 14 17  1  0  0  0  0
 17 18  1  0  0  0  0
 17 19  1  0  0  0  0
 17 20  1  0  0  0  0
 20 21  1  0  0  0  0
 20 22  1  0  0  0  0
 20 23  1  0  0  0  0
 23 24  1  0  0  0  0
 23 25  1  0  0  0  0
 23 26  1  0  0  0  0
M  END
> <VM2 Rank>
62

> <Conf_Id>
1516

> <Probability>
0.46

> <Sum Probability>
88.43

> <Delta G>
1.645

> <G>
49.906

> <E>
17.198

> <-TS>
32.708

> <U+W>
-4.264

> <U>
49.425

> <W>
-53.688

> <W(PB)>
-55.973

> <W(SA)>
2.285

> <Valence>
3.135

> <Coulomb>
45.468

> <VdW>
0.822

> <VdW6>
-7.705

> <VdW12>
8.527

> <Bond>
0.222

> <Angle>
0.941

> <Pdih>
1.972

> <Idih>
0.000

> <Tether>
0.000

$$$$
VeraChem MOL file


 26 25  0  0  0  0  0  0  0  0999 V2000     
   19.4649   18.8448   19.4137 C   0  0  0  0  0  0  0  0  0  0  0  0
   18.8664   19.7650   19.4125 H   0  0  0  0  0  0  0  0  0  0  0  0
   19.7353   18.6193   18.3740 H   0  0  0  0  0  0  0  0  0  0  0  0
   18.8333   18.0237   19.7744 H   0  0  0  0  0  0  0  0  0  0  0  0
   20.7352   19.0088   20.2789 C   0  0  0  0  0  0  0  0  0  0  0  0
   21.3916   19.7510   19.8033 H   0  0  0  0  0  0  0  0  0  0  0  0
   21.2983   18.0651   20.2926 H   0  0  0  0  0  0  0  0  0  0  0  0
   20.4416   19.4648   21.7288 C   0  0  0  0  0  0  0  0  0  0  0  0
   21.4008   19.6846   22.2144 H   0  0  0  0  0  0  0  0  0  0  0  0
   19.8800   20.4089   21.7093 H   0  0  0  0  0  0  0  0  0  0  0  0
   19.6667   18.4117   22.5616 C   0  0  0  0  0  0  0  0  0  0  0  0
   20.2298   17.4686   22.5845 H   0  0  0  0  0  0  0  0  0  0  0  0
   18.7118   18.1892   22.0683 H   0  0  0  0  0  0  0  0  0  0  0  0
   19.3596   18.8683   24.0094 C   0  0  0  0  0  0  0  0  0  0  0  0
   18.8091   19.8190   23.9865 H   0  0  0  0  0  0  0  0  0  0  0  0
   18.6829   18.1314   24.4619 H   0  0  0  0  0  0  0  0  0  0  0  0
   20.6220   19.0161   24.8959 C   0  0  0  0  0  0  0  0  0  0  0  0
   21.2836   19.7845   24.4778 H   0  0  0  0  0  0  0  0  0  0  0  0
   21.1920   18.0776   24.8994 H   0  0  0  0  0  0  0  0  0  0  0  0
   20.2860   19.4185   26.3451 C   0  0  0  0  0  0  0  0  0  0  0  0
   21.2137   19.6033   26.8935 H   0  0  0  0  0  0  0  0  0  0  0  0
   19.7008   20.3420   26.3445 H   0  0  0  0  0  0  0  0  0  0  0  0
   19.5050   18.3661   27.1076 N   0  3  0  0  0  0  0  0  0  0  0  0
   19.3117   18.6596   28.0714 H   0  0  0  0  0  0  0  0  0  0  0  0
   20.0150   17.4783   27.1618 H   0  0  0  0  0  0  0  0  0  0  0  0
   18.6010   18.1700   26.6670 H   0  0  0  0  0  0  0  0  0  0  0  0
  1  2  1  0  0  0  0
  1  3  1  0  0  0  0
  1  4  1  0  0  0  0
  1  5  1  0  0  0  0
  5  6  1  0  0  0  0
  5  7  1  0  0  0  0
  5  8  1  0  0  0  0
  8  9  1  0  0  0  0
  8 10  1  0  0  0  0
  8 11  1  0  0  0  0
 11 12  1  0  0  0  0
 11 13  1  0  0  0  0
 11 14  1  0  0  0  0
 14 15  1  0  0  0  0
 14 16  1  0  0  0  0
 14 17  1  0  0  0  0
 17 18  1  0  0  0  0
 17 19  1  0  0  0  0
 17 20  1  0  0  0  0
 20 21  1  0  0  0  0
 20 22  1  0  0  0  0
 20 23  1  0  0  0  0
 23 24  1  0  0  0  0
 23 25  1  0  0  0  0
 23 26  1  0  0  0  0
M  END
> <VM2 Rank>
63

> <Conf_Id>
978

> <Probability>
0.46

> <Sum Probability>
88.89

> <Delta G>
1.650

> <G>
49.911

> <E>
17.332

> <-TS>
32.579

> <U+W>
-4.130

> <U>
49.323

> <W>
-53.453

> <W(PB)>
-55.748

> <W(SA)>
2.296

> <Valence>
3.408

> <Coulomb>
44.893

> <VdW>
1.021

> <VdW6>
-7.481

> <VdW12>
8.502

> <Bond>
0.239

> <Angle>
1.013

> <Pdih>
2.157

> <Idih>
0.000

> <Tether>
0.000

$$$$
VeraChem MOL file


 26 25  0  0  0  0  0  0  0  0999 V2000     
   19.3417   19.8346   19.7330 C   0  0  0  0  0  0  0  0  0  0  0  0
   20.0396   19.5354   18.9402 H   0  0  0  0  0  0  0  0  0  0  0  0
   18.3269   19.8104   19.3149 H   0  0  0  0  0  0  0  0  0  0  0  0
   19.5663   20.8721   20.0129 H   0  0  0  0  0  0  0  0  0  0  0  0
   19.4510   18.8953   20.9527 C   0  0  0  0  0  0  0  0  0  0  0  0
   19.1922   17.8713   20.6491 H   0  0  0  0  0  0  0  0  0  0  0  0
   18.7120   19.2013   21.7052 H   0  0  0  0  0  0  0  0  0  0  0  0
   20.8724   18.9155   21.5626 C   0  0  0  0  0  0  0  0  0  0  0  0
   21.6014   18.6813   20.7746 H   0  0  0  0  0  0  0  0  0  0  0  0
   21.1160   19.9301   21.9040 H   0  0  0  0  0  0  0  0  0  0  0  0
   21.0666   17.9030   22.7211 C   0  0  0  0  0  0  0  0  0  0  0  0
   22.1058   17.9649   23.0724 H   0  0  0  0  0  0  0  0  0  0  0  0
   20.9441   16.8850   22.3263 H   0  0  0  0  0  0  0  0  0  0  0  0
   20.1154   18.0835   23.9327 C   0  0  0  0  0  0  0  0  0  0  0  0
   19.0764   17.9078   23.6240 H   0  0  0  0  0  0  0  0  0  0  0  0
   20.3484   17.2995   24.6652 H   0  0  0  0  0  0  0  0  0  0  0  0
   20.2323   19.4716   24.6107 C   0  0  0  0  0  0  0  0  0  0  0  0
   19.9583   20.2574   23.8957 H   0  0  0  0  0  0  0  0  0  0  0  0
   21.2733   19.6612   24.9040 H   0  0  0  0  0  0  0  0  0  0  0  0
   19.3169   19.6104   25.8424 C   0  0  0  0  0  0  0  0  0  0  0  0
   19.3681   20.6361   26.2177 H   0  0  0  0  0  0  0  0  0  0  0  0
   18.2819   19.4032   25.5572 H   0  0  0  0  0  0  0  0  0  0  0  0
   19.6848   18.6852   26.9858 N   0  3  0  0  0  0  0  0  0  0  0  0
   19.0658   18.8135   27.7937 H   0  0  0  0  0  0  0  0  0  0  0  0
   20.6425   18.8477   27.3138 H   0  0  0  0  0  0  0  0  0  0  0  0
   19.6211   17.6997   26.7129 H   0  0  0  0  0  0  0  0  0  0  0  0
  1  2  1  0  0  0  0
  1  3  1  0  0  0  0
  1  4  1  0  0  0  0
  1  5  1  0  0  0  0
  5  6  1  0  0  0  0
  5  7  1  0  0  0  0
  5  8  1  0  0  0  0
  8  9  1  0  0  0  0
  8 10  1  0  0  0  0
  8 11  1  0  0  0  0
 11 12  1  0  0  0  0
 11 13  1  0  0  0  0
 11 14  1  0  0  0  0
 14 15  1  0  0  0  0
 14 16  1  0  0  0  0
 14 17  1  0  0  0  0
 17 18  1  0  0  0  0
 17 19  1  0  0  0  0
 17 20  1  0  0  0  0
 20 21  1  0  0  0  0
 20 22  1  0  0  0  0
 20 23  1  0  0  0  0
 23 24  1  0  0  0  0
 23 25  1  0  0  0  0
 23 26  1  0  0  0  0
M  END
> <VM2 Rank>
64

> <Conf_Id>
431

> <Probability>
0.45

> <Sum Probability>
89.34

> <Delta G>
1.655

> <G>
49.916

> <E>
17.026

> <-TS>
32.890

> <U+W>
-4.436

> <U>
49.231

> <W>
-53.667

> <W(PB)>
-55.963

> <W(SA)>
2.296

> <Valence>
3.277

> <Coulomb>
45.175

> <VdW>
0.779

> <VdW6>
-7.944

> <VdW12>
8.723

> <Bond>
0.239

> <Angle>
1.155

> <Pdih>
1.883

> <Idih>
0.000

> <Tether>
0.000

$$$$
VeraChem MOL file


 26 25  0  0  0  0  0  0  0  0999 V2000     
   20.9192   20.0875   20.0860 C   0  0  0  0  0  0  0  0  0  0  0  0
   20.4831   21.0511   20.3800 H   0  0  0  0  0  0  0  0  0  0  0  0
   21.9811   20.2523   19.8621 H   0  0  0  0  0  0  0  0  0  0  0  0
   20.4275   19.7572   19.1617 H   0  0  0  0  0  0  0  0  0  0  0  0
   20.7551   19.0397   21.2073 C   0  0  0  0  0  0  0  0  0  0  0  0
   21.2925   19.3865   22.0999 H   0  0  0  0  0  0  0  0  0  0  0  0
   21.2262   18.0966   20.8971 H   0  0  0  0  0  0  0  0  0  0  0  0
   19.2656   18.7933   21.5440 C   0  0  0  0  0  0  0  0  0  0  0  0
   18.8045   19.7265   21.8933 H   0  0  0  0  0  0  0  0  0  0  0  0
   18.7323   18.5212   20.6227 H   0  0  0  0  0  0  0  0  0  0  0  0
   19.0419   17.6674   22.5866 C   0  0  0  0  0  0  0  0  0  0  0  0
   19.4020   16.7177   22.1676 H   0  0  0  0  0  0  0  0  0  0  0  0
   17.9615   17.5374   22.7384 H   0  0  0  0  0  0  0  0  0  0  0  0
   19.7193   17.8931   23.9630 C   0  0  0  0  0  0  0  0  0  0  0  0
   19.4886   17.0331   24.6068 H   0  0  0  0  0  0  0  0  0  0  0  0
   20.8100   17.8961   23.8424 H   0  0  0  0  0  0  0  0  0  0  0  0
   19.2569   19.1900   24.6727 C   0  0  0  0  0  0  0  0  0  0  0  0
   18.1599   19.2089   24.7172 H   0  0  0  0  0  0  0  0  0  0  0  0
   19.5644   20.0723   24.0971 H   0  0  0  0  0  0  0  0  0  0  0  0
   19.8063   19.3077   26.1073 C   0  0  0  0  0  0  0  0  0  0  0  0
   19.3858   20.1966   26.5853 H   0  0  0  0  0  0  0  0  0  0  0  0
   19.5052   18.4327   26.6897 H   0  0  0  0  0  0  0  0  0  0  0  0
   21.3168   19.4202   26.1741 N   0  3  0  0  0  0  0  0  0  0  0  0
   21.6492   19.5079   27.1406 H   0  0  0  0  0  0  0  0  0  0  0  0
   21.6604   20.2402   25.6637 H   0  0  0  0  0  0  0  0  0  0  0  0
   21.7765   18.5974   25.7723 H   0  0  0  0  0  0  0  0  0  0  0  0
  1  2  1  0  0  0  0
  1  3  1  0  0  0  0
  1  4  1  0  0  0  0
  1  5  1  0  0  0  0
  5  6  1  0  0  0  0
  5  7  1  0  0  0  0
  5  8  1  0  0  0  0
  8  9  1  0  0  0  0
  8 10  1  0  0  0  0
  8 11  1  0  0  0  0
 11 12  1  0  0  0  0
 11 13  1  0  0  0  0
 11 14  1  0  0  0  0
 14 15  1  0  0  0  0
 14 16  1  0  0  0  0
 14 17  1  0  0  0  0
 17 18  1  0  0  0  0
 17 19  1  0  0  0  0
 17 20  1  0  0  0  0
 20 21  1  0  0  0  0
 20 22  1  0  0  0  0
 20 23  1  0  0  0  0
 23 24  1  0  0  0  0
 23 25  1  0  0  0  0
 23 26  1  0  0  0  0
M  END
> <VM2 Rank>
65

> <Conf_Id>
800

> <Probability>
0.45

> <Sum Probability>
89.79

> <Delta G>
1.662

> <G>
49.923

> <E>
17.017

> <-TS>
32.906

> <U+W>
-4.444

> <U>
49.678

> <W>
-54.122

> <W(PB)>
-56.391

> <W(SA)>
2.269

> <Valence>
3.238

> <Coulomb>
45.761

> <VdW>
0.679

> <VdW6>
-8.038

> <VdW12>
8.717

> <Bond>
0.234

> <Angle>
1.079

> <Pdih>
1.925

> <Idih>
0.000

> <Tether>
0.000

$$$$
VeraChem MOL file


 26 25  0  0  0  0  0  0  0  0999 V2000     
   18.5626   18.9963   20.4407 C   0  0  0  0  0  0  0  0  0  0  0  0
   17.9168   18.3528   21.0522 H   0  0  0  0  0  0  0  0  0  0  0  0
   18.4643   20.0269   20.8035 H   0  0  0  0  0  0  0  0  0  0  0  0
   18.1832   18.9714   19.4110 H   0  0  0  0  0  0  0  0  0  0  0  0
   20.0308   18.5156   20.4878 C   0  0  0  0  0  0  0  0  0  0  0  0
   20.6603   19.1909   19.8916 H   0  0  0  0  0  0  0  0  0  0  0  0
   20.0965   17.5296   20.0071 H   0  0  0  0  0  0  0  0  0  0  0  0
   20.5941   18.4064   21.9251 C   0  0  0  0  0  0  0  0  0  0  0  0
   19.9715   17.7095   22.5016 H   0  0  0  0  0  0  0  0  0  0  0  0
   21.5968   17.9602   21.8751 H   0  0  0  0  0  0  0  0  0  0  0  0
   20.6828   19.7704   22.6548 C   0  0  0  0  0  0  0  0  0  0  0  0
   19.6774   20.1837   22.8052 H   0  0  0  0  0  0  0  0  0  0  0  0
   21.2127   20.4863   22.0117 H   0  0  0  0  0  0  0  0  0  0  0  0
   21.4223   19.6946   24.0156 C   0  0  0  0  0  0  0  0  0  0  0  0
   22.4633   19.3882   23.8437 H   0  0  0  0  0  0  0  0  0  0  0  0
   21.4721   20.7043   24.4463 H   0  0  0  0  0  0  0  0  0  0  0  0
   20.7812   18.7384   25.0519 C   0  0  0  0  0  0  0  0  0  0  0  0
   21.3641   18.7816   25.9815 H   0  0  0  0  0  0  0  0  0  0  0  0
   20.8455   17.7019   24.6970 H   0  0  0  0  0  0  0  0  0  0  0  0
   19.3141   19.0911   25.3603 C   0  0  0  0  0  0  0  0  0  0  0  0
   19.2519   20.1201   25.7245 H   0  0  0  0  0  0  0  0  0  0  0  0
   18.7163   19.0113   24.4486 H   0  0  0  0  0  0  0  0  0  0  0  0
   18.6931   18.1862   26.4046 N   0  3  0  0  0  0  0  0  0  0  0  0
   18.6964   17.2042   26.1102 H   0  0  0  0  0  0  0  0  0  0  0  0
   17.7170   18.4379   26.5949 H   0  0  0  0  0  0  0  0  0  0  0  0
   19.1932   18.2352   27.2983 H   0  0  0  0  0  0  0  0  0  0  0  0
  1  2  1  0  0  0  0
  1  3  1  0  0  0  0
  1  4  1  0  0  0  0
  1  5  1  0  0  0  0
  5  6  1  0  0  0  0
  5  7  1  0  0  0  0
  5  8  1  0  0  0  0
  8  9  1  0  0  0  0
  8 10  1  0  0  0  0
  8 11  1  0  0  0  0
 11 12  1  0  0  0  0
 11 13  1  0  0  0  0
 11 14  1  0  0  0  0
 14 15  1  0  0  0  0
 14 16  1  0  0  0  0
 14 17  1  0  0  0  0
 17 18  1  0  0  0  0
 17 19  1  0  0  0  0
 17 20  1  0  0  0  0
 20 21  1  0  0  0  0
 20 22  1  0  0  0  0
 20 23  1  0  0  0  0
 23 24  1  0  0  0  0
 23 25  1  0  0  0  0
 23 26  1  0  0  0  0
M  END
> <VM2 Rank>
66

> <Conf_Id>
570

> <Probability>
0.45

> <Sum Probability>
90.24

> <Delta G>
1.665

> <G>
49.926

> <E>
17.106

> <-TS>
32.820

> <U+W>
-4.356

> <U>
49.567

> <W>
-53.923

> <W(PB)>
-56.210

> <W(SA)>
2.287

> <Valence>
3.380

> <Coulomb>
45.516

> <VdW>
0.670

> <VdW6>
-8.071

> <VdW12>
8.742

> <Bond>
0.231

> <Angle>
1.069

> <Pdih>
2.080

> <Idih>
0.000

> <Tether>
0.000

$$$$
VeraChem MOL file


 26 25  0  0  0  0  0  0  0  0999 V2000     
   19.9450   19.6219   19.4851 C   0  0  0  0  0  0  0  0  0  0  0  0
   20.0292   19.3826   18.4171 H   0  0  0  0  0  0  0  0  0  0  0  0
   18.8775   19.7235   19.7159 H   0  0  0  0  0  0  0  0  0  0  0  0
   20.4274   20.5940   19.6501 H   0  0  0  0  0  0  0  0  0  0  0  0
   20.6100   18.5189   20.3398 C   0  0  0  0  0  0  0  0  0  0  0  0
   21.6384   18.3686   19.9825 H   0  0  0  0  0  0  0  0  0  0  0  0
   20.0882   17.5644   20.1837 H   0  0  0  0  0  0  0  0  0  0  0  0
   20.6546   18.8505   21.8512 C   0  0  0  0  0  0  0  0  0  0  0  0
   21.2591   18.0814   22.3487 H   0  0  0  0  0  0  0  0  0  0  0  0
   21.1798   19.8037   22.0019 H   0  0  0  0  0  0  0  0  0  0  0  0
   19.2532   18.9149   22.5102 C   0  0  0  0  0  0  0  0  0  0  0  0
   18.7281   17.9617   22.3598 H   0  0  0  0  0  0  0  0  0  0  0  0
   18.6493   19.6825   22.0093 H   0  0  0  0  0  0  0  0  0  0  0  0
   19.2958   19.2515   24.0212 C   0  0  0  0  0  0  0  0  0  0  0  0
   19.8162   20.2079   24.1649 H   0  0  0  0  0  0  0  0  0  0  0  0
   18.2655   19.4039   24.3719 H   0  0  0  0  0  0  0  0  0  0  0  0
   19.9601   18.1490   24.8834 C   0  0  0  0  0  0  0  0  0  0  0  0
   21.0236   18.0518   24.6319 H   0  0  0  0  0  0  0  0  0  0  0  0
   19.4929   17.1808   24.6597 H   0  0  0  0  0  0  0  0  0  0  0  0
   19.8239   18.4186   26.3943 C   0  0  0  0  0  0  0  0  0  0  0  0
   18.7670   18.5139   26.6575 H   0  0  0  0  0  0  0  0  0  0  0  0
   20.2397   17.5754   26.9525 H   0  0  0  0  0  0  0  0  0  0  0  0
   20.5385   19.6736   26.8558 N   0  3  0  0  0  0  0  0  0  0  0  0
   20.4380   19.8191   27.8663 H   0  0  0  0  0  0  0  0  0  0  0  0
   20.1706   20.5111   26.3940 H   0  0  0  0  0  0  0  0  0  0  0  0
   21.5435   19.6344   26.6573 H   0  0  0  0  0  0  0  0  0  0  0  0
  1  2  1  0  0  0  0
  1  3  1  0  0  0  0
  1  4  1  0  0  0  0
  1  5  1  0  0  0  0
  5  6  1  0  0  0  0
  5  7  1  0  0  0  0
  5  8  1  0  0  0  0
  8  9  1  0  0  0  0
  8 10  1  0  0  0  0
  8 11  1  0  0  0  0
 11 12  1  0  0  0  0
 11 13  1  0  0  0  0
 11 14  1  0  0  0  0
 14 15  1  0  0  0  0
 14 16  1  0  0  0  0
 14 17  1  0  0  0  0
 17 18  1  0  0  0  0
 17 19  1  0  0  0  0
 17 20  1  0  0  0  0
 20 21  1  0  0  0  0
 20 22  1  0  0  0  0
 20 23  1  0  0  0  0
 23 24  1  0  0  0  0
 23 25  1  0  0  0  0
 23 26  1  0  0  0  0
M  END
> <VM2 Rank>
67

> <Conf_Id>
277

> <Probability>
0.44

> <Sum Probability>
90.68

> <Delta G>
1.668

> <G>
49.929

> <E>
17.303

> <-TS>
32.626

> <U+W>
-4.159

> <U>
49.401

> <W>
-53.560

> <W(PB)>
-55.886

> <W(SA)>
2.327

> <Valence>
3.370

> <Coulomb>
45.066

> <VdW>
0.965

> <VdW6>
-7.529

> <VdW12>
8.494

> <Bond>
0.232

> <Angle>
0.963

> <Pdih>
2.174

> <Idih>
0.000

> <Tether>
0.000

$$$$
VeraChem MOL file


 26 25  0  0  0  0  0  0  0  0999 V2000     
   20.1415   19.5438   19.2874 C   0  0  0  0  0  0  0  0  0  0  0  0
   20.2037   20.6350   19.3914 H   0  0  0  0  0  0  0  0  0  0  0  0
   20.9009   19.2308   18.5591 H   0  0  0  0  0  0  0  0  0  0  0  0
   19.1555   19.2953   18.8736 H   0  0  0  0  0  0  0  0  0  0  0  0
   20.3668   18.8439   20.6445 C   0  0  0  0  0  0  0  0  0  0  0  0
   21.3763   19.0830   21.0041 H   0  0  0  0  0  0  0  0  0  0  0  0
   20.3279   17.7548   20.5032 H   0  0  0  0  0  0  0  0  0  0  0  0
   19.3100   19.2735   21.6896 C   0  0  0  0  0  0  0  0  0  0  0  0
   19.3867   20.3543   21.8717 H   0  0  0  0  0  0  0  0  0  0  0  0
   18.3079   19.1023   21.2725 H   0  0  0  0  0  0  0  0  0  0  0  0
   19.4171   18.5109   23.0332 C   0  0  0  0  0  0  0  0  0  0  0  0
   19.3370   17.4306   22.8495 H   0  0  0  0  0  0  0  0  0  0  0  0
   18.5496   18.7841   23.6481 H   0  0  0  0  0  0  0  0  0  0  0  0
   20.7212   18.8132   23.8144 C   0  0  0  0  0  0  0  0  0  0  0  0
   21.5887   18.5134   23.2126 H   0  0  0  0  0  0  0  0  0  0  0  0
   20.8177   19.8957   23.9720 H   0  0  0  0  0  0  0  0  0  0  0  0
   20.8030   18.0730   25.1733 C   0  0  0  0  0  0  0  0  0  0  0  0
   21.7719   18.2865   25.6439 H   0  0  0  0  0  0  0  0  0  0  0  0
   20.7812   16.9894   24.9968 H   0  0  0  0  0  0  0  0  0  0  0  0
   19.6745   18.4365   26.1599 C   0  0  0  0  0  0  0  0  0  0  0  0
   18.7051   18.1803   25.7251 H   0  0  0  0  0  0  0  0  0  0  0  0
   19.7967   17.8578   27.0795 H   0  0  0  0  0  0  0  0  0  0  0  0
   19.6469   19.9040   26.5387 N   0  3  0  0  0  0  0  0  0  0  0  0
   18.8921   20.1126   27.2013 H   0  0  0  0  0  0  0  0  0  0  0  0
   19.5028   20.5024   25.7195 H   0  0  0  0  0  0  0  0  0  0  0  0
   20.5236   20.1994   26.9802 H   0  0  0  0  0  0  0  0  0  0  0  0
  1  2  1  0  0  0  0
  1  3  1  0  0  0  0
  1  4  1  0  0  0  0
  1  5  1  0  0  0  0
  5  6  1  0  0  0  0
  5  7  1  0  0  0  0
  5  8  1  0  0  0  0
  8  9  1  0  0  0  0
  8 10  1  0  0  0  0
  8 11  1  0  0  0  0
 11 12  1  0  0  0  0
 11 13  1  0  0  0  0
 11 14  1  0  0  0  0
 14 15  1  0  0  0  0
 14 16  1  0  0  0  0
 14 17  1  0  0  0  0
 17 18  1  0  0  0  0
 17 19  1  0  0  0  0
 17 20  1  0  0  0  0
 20 21  1  0  0  0  0
 20 22  1  0  0  0  0
 20 23  1  0  0  0  0
 23 24  1  0  0  0  0
 23 25  1  0  0  0  0
 23 26  1  0  0  0  0
M  END
> <VM2 Rank>
68

> <Conf_Id>
529

> <Probability>
0.44

> <Sum Probability>
91.12

> <Delta G>
1.678

> <G>
49.939

> <E>
17.231

> <-TS>
32.708

> <U+W>
-4.230

> <U>
49.425

> <W>
-53.655

> <W(PB)>
-55.942

> <W(SA)>
2.286

> <Valence>
3.135

> <Coulomb>
45.468

> <VdW>
0.822

> <VdW6>
-7.705

> <VdW12>
8.527

> <Bond>
0.222

> <Angle>
0.941

> <Pdih>
1.972

> <Idih>
0.000

> <Tether>
0.000

$$$$
VeraChem MOL file


 26 25  0  0  0  0  0  0  0  0999 V2000     
   20.3468   18.2641   19.4852 C   0  0  0  0  0  0  0  0  0  0  0  0
   19.3732   18.5593   19.0728 H   0  0  0  0  0  0  0  0  0  0  0  0
   21.1123   18.9288   19.0641 H   0  0  0  0  0  0  0  0  0  0  0  0
   20.5622   17.2434   19.1433 H   0  0  0  0  0  0  0  0  0  0  0  0
   20.3393   18.3321   21.0271 C   0  0  0  0  0  0  0  0  0  0  0  0
   21.3153   18.0036   21.4106 H   0  0  0  0  0  0  0  0  0  0  0  0
   19.5913   17.6257   21.4108 H   0  0  0  0  0  0  0  0  0  0  0  0
   20.0333   19.7617   21.5329 C   0  0  0  0  0  0  0  0  0  0  0  0
   20.7458   20.4621   21.0756 H   0  0  0  0  0  0  0  0  0  0  0  0
   19.0358   20.0703   21.1909 H   0  0  0  0  0  0  0  0  0  0  0  0
   20.1227   19.9063   23.0719 C   0  0  0  0  0  0  0  0  0  0  0  0
   20.0066   20.9683   23.3285 H   0  0  0  0  0  0  0  0  0  0  0  0
   21.1286   19.6164   23.4038 H   0  0  0  0  0  0  0  0  0  0  0  0
   19.0510   19.0844   23.8318 C   0  0  0  0  0  0  0  0  0  0  0  0
   18.0593   19.3181   23.4207 H   0  0  0  0  0  0  0  0  0  0  0  0
   19.2069   18.0112   23.6648 H   0  0  0  0  0  0  0  0  0  0  0  0
   19.0340   19.3724   25.3539 C   0  0  0  0  0  0  0  0  0  0  0  0
   18.2327   18.7881   25.8254 H   0  0  0  0  0  0  0  0  0  0  0  0
   18.7809   20.4280   25.5200 H   0  0  0  0  0  0  0  0  0  0  0  0
   20.3681   19.0662   26.0645 C   0  0  0  0  0  0  0  0  0  0  0  0
   21.1658   19.6756   25.6320 H   0  0  0  0  0  0  0  0  0  0  0  0
   20.2821   19.3222   27.1240 H   0  0  0  0  0  0  0  0  0  0  0  0
   20.7858   17.6118   25.9736 N   0  3  0  0  0  0  0  0  0  0  0  0
   20.9137   17.3162   25.0009 H   0  0  0  0  0  0  0  0  0  0  0  0
   20.0870   16.9888   26.3913 H   0  0  0  0  0  0  0  0  0  0  0  0
   21.6715   17.4386   26.4611 H   0  0  0  0  0  0  0  0  0  0  0  0
  1  2  1  0  0  0  0
  1  3  1  0  0  0  0
  1  4  1  0  0  0  0
  1  5  1  0  0  0  0
  5  6  1  0  0  0  0
  5  7  1  0  0  0  0
  5  8  1  0  0  0  0
  8  9  1  0  0  0  0
  8 10  1  0  0  0  0
  8 11  1  0  0  0  0
 11 12  1  0  0  0  0
 11 13  1  0  0  0  0
 11 14  1  0  0  0  0
 14 15  1  0  0  0  0
 14 16  1  0  0  0  0
 14 17  1  0  0  0  0
 17 18  1  0  0  0  0
 17 19  1  0  0  0  0
 17 20  1  0  0  0  0
 20 21  1  0  0  0  0
 20 22  1  0  0  0  0
 20 23  1  0  0  0  0
 23 24  1  0  0  0  0
 23 25  1  0  0  0  0
 23 26  1  0  0  0  0
M  END
> <VM2 Rank>
69

> <Conf_Id>
841

> <Probability>
0.42

> <Sum Probability>
91.54

> <Delta G>
1.698

> <G>
49.959

> <E>
17.208

> <-TS>
32.751

> <U+W>
-4.254

> <U>
49.691

> <W>
-53.945

> <W(PB)>
-56.226

> <W(SA)>
2.281

> <Valence>
3.067

> <Coulomb>
45.912

> <VdW>
0.712

> <VdW6>
-7.810

> <VdW12>
8.523

> <Bond>
0.215

> <Angle>
0.854

> <Pdih>
1.997

> <Idih>
0.000

> <Tether>
0.000

$$$$
VeraChem MOL file


 26 25  0  0  0  0  0  0  0  0999 V2000     
   18.8829   18.4738   19.9569 C   0  0  0  0  0  0  0  0  0  0  0  0
   19.0643   17.6721   19.2293 H   0  0  0  0  0  0  0  0  0  0  0  0
   17.9550   18.2379   20.4941 H   0  0  0  0  0  0  0  0  0  0  0  0
   18.7273   19.4062   19.3986 H   0  0  0  0  0  0  0  0  0  0  0  0
   20.0712   18.6028   20.9331 C   0  0  0  0  0  0  0  0  0  0  0  0
   20.9892   18.8087   20.3652 H   0  0  0  0  0  0  0  0  0  0  0  0
   20.2205   17.6414   21.4422 H   0  0  0  0  0  0  0  0  0  0  0  0
   19.8371   19.7255   21.9711 C   0  0  0  0  0  0  0  0  0  0  0  0
   19.6249   20.6634   21.4397 H   0  0  0  0  0  0  0  0  0  0  0  0
   18.9383   19.5041   22.5616 H   0  0  0  0  0  0  0  0  0  0  0  0
   21.0466   19.9609   22.9123 C   0  0  0  0  0  0  0  0  0  0  0  0
   20.8190   20.8057   23.5762 H   0  0  0  0  0  0  0  0  0  0  0  0
   21.9074   20.2833   22.3103 H   0  0  0  0  0  0  0  0  0  0  0  0
   21.4701   18.7356   23.7667 C   0  0  0  0  0  0  0  0  0  0  0  0
   21.8661   17.9488   23.1110 H   0  0  0  0  0  0  0  0  0  0  0  0
   22.3089   19.0322   24.4116 H   0  0  0  0  0  0  0  0  0  0  0  0
   20.3464   18.1404   24.6509 C   0  0  0  0  0  0  0  0  0  0  0  0
   20.7549   17.2972   25.2234 H   0  0  0  0  0  0  0  0  0  0  0  0
   19.5504   17.7266   24.0186 H   0  0  0  0  0  0  0  0  0  0  0  0
   19.7507   19.1712   25.6276 C   0  0  0  0  0  0  0  0  0  0  0  0
   20.5420   19.5724   26.2666 H   0  0  0  0  0  0  0  0  0  0  0  0
   19.3086   19.9984   25.0662 H   0  0  0  0  0  0  0  0  0  0  0  0
   18.6760   18.5888   26.5225 N   0  3  0  0  0  0  0  0  0  0  0  0
   19.0347   17.8213   27.1000 H   0  0  0  0  0  0  0  0  0  0  0  0
   17.8883   18.2171   25.9818 H   0  0  0  0  0  0  0  0  0  0  0  0
   18.2930   19.2913   27.1645 H   0  0  0  0  0  0  0  0  0  0  0  0
  1  2  1  0  0  0  0
  1  3  1  0  0  0  0
  1  4  1  0  0  0  0
  1  5  1  0  0  0  0
  5  6  1  0  0  0  0
  5  7  1  0  0  0  0
  5  8  1  0  0  0  0
  8  9  1  0  0  0  0
  8 10  1  0  0  0  0
  8 11  1  0  0  0  0
 11 12  1  0  0  0  0
 11 13  1  0  0  0  0
 11 14  1  0  0  0  0
 14 15  1  0  0  0  0
 14 16  1  0  0  0  0
 14 17  1  0  0  0  0
 17 18  1  0  0  0  0
 17 19  1  0  0  0  0
 17 20  1  0  0  0  0
 20 21  1  0  0  0  0
 20 22  1  0  0  0  0
 20 23  1  0  0  0  0
 23 24  1  0  0  0  0
 23 25  1  0  0  0  0
 23 26  1  0  0  0  0
M  END
> <VM2 Rank>
70

> <Conf_Id>
494

> <Probability>
0.42

> <Sum Probability>
91.96

> <Delta G>
1.702

> <G>
49.963

> <E>
16.925

> <-TS>
33.038

> <U+W>
-4.536

> <U>
49.453

> <W>
-53.990

> <W(PB)>
-56.276

> <W(SA)>
2.286

> <Valence>
3.376

> <Coulomb>
45.559

> <VdW>
0.518

> <VdW6>
-8.348

> <VdW12>
8.866

> <Bond>
0.240

> <Angle>
1.236

> <Pdih>
1.900

> <Idih>
0.000

> <Tether>
0.000

$$$$
VeraChem MOL file


 26 25  0  0  0  0  0  0  0  0999 V2000     
   18.7347   18.6466   20.0128 C   0  0  0  0  0  0  0  0  0  0  0  0
   19.2741   18.9966   19.1230 H   0  0  0  0  0  0  0  0  0  0  0  0
   18.1769   17.7430   19.7345 H   0  0  0  0  0  0  0  0  0  0  0  0
   18.0069   19.4178   20.2970 H   0  0  0  0  0  0  0  0  0  0  0  0
   19.7093   18.3499   21.1722 C   0  0  0  0  0  0  0  0  0  0  0  0
   20.4051   17.5550   20.8695 H   0  0  0  0  0  0  0  0  0  0  0  0
   19.1382   17.9654   22.0276 H   0  0  0  0  0  0  0  0  0  0  0  0
   20.5046   19.6106   21.5854 C   0  0  0  0  0  0  0  0  0  0  0  0
   21.0069   20.0216   20.6988 H   0  0  0  0  0  0  0  0  0  0  0  0
   19.8121   20.3912   21.9270 H   0  0  0  0  0  0  0  0  0  0  0  0
   21.5780   19.3402   22.6714 C   0  0  0  0  0  0  0  0  0  0  0  0
   22.1145   20.2766   22.8773 H   0  0  0  0  0  0  0  0  0  0  0  0
   22.3285   18.6480   22.2654 H   0  0  0  0  0  0  0  0  0  0  0  0
   21.0406   18.7647   24.0072 C   0  0  0  0  0  0  0  0  0  0  0  0
   20.6152   17.7677   23.8358 H   0  0  0  0  0  0  0  0  0  0  0  0
   21.8912   18.6177   24.6871 H   0  0  0  0  0  0  0  0  0  0  0  0
   19.9980   19.6788   24.6975 C   0  0  0  0  0  0  0  0  0  0  0  0
   19.0936   19.7617   24.0815 H   0  0  0  0  0  0  0  0  0  0  0  0
   20.4093   20.6925   24.7922 H   0  0  0  0  0  0  0  0  0  0  0  0
   19.6076   19.1767   26.1008 C   0  0  0  0  0  0  0  0  0  0  0  0
   20.5024   19.0907   26.7231 H   0  0  0  0  0  0  0  0  0  0  0  0
   18.9339   19.8987   26.5702 H   0  0  0  0  0  0  0  0  0  0  0  0
   18.9082   17.8315   26.0939 N   0  3  0  0  0  0  0  0  0  0  0  0
   18.6522   17.5312   27.0408 H   0  0  0  0  0  0  0  0  0  0  0  0
   19.5023   17.0972   25.6968 H   0  0  0  0  0  0  0  0  0  0  0  0
   18.0440   17.8545   25.5431 H   0  0  0  0  0  0  0  0  0  0  0  0
  1  2  1  0  0  0  0
  1  3  1  0  0  0  0
  1  4  1  0  0  0  0
  1  5  1  0  0  0  0
  5  6  1  0  0  0  0
  5  7  1  0  0  0  0
  5  8  1  0  0  0  0
  8  9  1  0  0  0  0
  8 10  1  0  0  0  0
  8 11  1  0  0  0  0
 11 12  1  0  0  0  0
 11 13  1  0  0  0  0
 11 14  1  0  0  0  0
 14 15  1  0  0  0  0
 14 16  1  0  0  0  0
 14 17  1  0  0  0  0
 17 18  1  0  0  0  0
 17 19  1  0  0  0  0
 17 20  1  0  0  0  0
 20 21  1  0  0  0  0
 20 22  1  0  0  0  0
 20 23  1  0  0  0  0
 23 24  1  0  0  0  0
 23 25  1  0  0  0  0
 23 26  1  0  0  0  0
M  END
> <VM2 Rank>
71

> <Conf_Id>
1612

> <Probability>
0.41

> <Sum Probability>
92.37

> <Delta G>
1.713

> <G>
49.974

> <E>
17.069

> <-TS>
32.905

> <U+W>
-4.393

> <U>
49.677

> <W>
-54.070

> <W(PB)>
-56.334

> <W(SA)>
2.263

> <Valence>
3.238

> <Coulomb>
45.760

> <VdW>
0.679

> <VdW6>
-8.038

> <VdW12>
8.717

> <Bond>
0.233

> <Angle>
1.079

> <Pdih>
1.925

> <Idih>
0.000

> <Tether>
0.000

$$$$
VeraChem MOL file


 26 25  0  0  0  0  0  0  0  0999 V2000     
   19.2519   20.2703   20.6298 C   0  0  0  0  0  0  0  0  0  0  0  0
   20.0582   20.9462   20.3168 H   0  0  0  0  0  0  0  0  0  0  0  0
   18.3779   20.4744   19.9980 H   0  0  0  0  0  0  0  0  0  0  0  0
   18.9773   20.5170   21.6630 H   0  0  0  0  0  0  0  0  0  0  0  0
   19.6831   18.7922   20.4963 C   0  0  0  0  0  0  0  0  0  0  0  0
   19.8313   18.5618   19.4320 H   0  0  0  0  0  0  0  0  0  0  0  0
   18.8693   18.1369   20.8345 H   0  0  0  0  0  0  0  0  0  0  0  0
   20.9908   18.4600   21.2593 C   0  0  0  0  0  0  0  0  0  0  0  0
   21.2419   17.4041   21.0882 H   0  0  0  0  0  0  0  0  0  0  0  0
   21.8147   19.0394   20.8205 H   0  0  0  0  0  0  0  0  0  0  0  0
   20.9521   18.7284   22.7858 C   0  0  0  0  0  0  0  0  0  0  0  0
   20.8179   19.8025   22.9670 H   0  0  0  0  0  0  0  0  0  0  0  0
   21.9337   18.4707   23.2066 H   0  0  0  0  0  0  0  0  0  0  0  0
   19.8577   17.9190   23.5262 C   0  0  0  0  0  0  0  0  0  0  0  0
   18.8618   18.2333   23.1867 H   0  0  0  0  0  0  0  0  0  0  0  0
   19.9561   16.8561   23.2662 H   0  0  0  0  0  0  0  0  0  0  0  0
   19.9355   18.0646   25.0640 C   0  0  0  0  0  0  0  0  0  0  0  0
   20.9171   17.7227   25.4184 H   0  0  0  0  0  0  0  0  0  0  0  0
   19.1879   17.4041   25.5231 H   0  0  0  0  0  0  0  0  0  0  0  0
   19.6887   19.5098   25.5360 C   0  0  0  0  0  0  0  0  0  0  0  0
   20.4528   20.1708   25.1190 H   0  0  0  0  0  0  0  0  0  0  0  0
   18.7105   19.8493   25.1850 H   0  0  0  0  0  0  0  0  0  0  0  0
   19.7211   19.6547   27.0437 N   0  3  0  0  0  0  0  0  0  0  0  0
   20.6268   19.3757   27.4349 H   0  0  0  0  0  0  0  0  0  0  0  0
   19.0056   19.0782   27.4984 H   0  0  0  0  0  0  0  0  0  0  0  0
   19.5547   20.6235   27.3371 H   0  0  0  0  0  0  0  0  0  0  0  0
  1  2  1  0  0  0  0
  1  3  1  0  0  0  0
  1  4  1  0  0  0  0
  1  5  1  0  0  0  0
  5  6  1  0  0  0  0
  5  7  1  0  0  0  0
  5  8  1  0  0  0  0
  8  9  1  0  0  0  0
  8 10  1  0  0  0  0
  8 11  1  0  0  0  0
 11 12  1  0  0  0  0
 11 13  1  0  0  0  0
 11 14  1  0  0  0  0
 14 15  1  0  0  0  0
 14 16  1  0  0  0  0
 14 17  1  0  0  0  0
 17 18  1  0  0  0  0
 17 19  1  0  0  0  0
 17 20  1  0  0  0  0
 20 21  1  0  0  0  0
 20 22  1  0  0  0  0
 20 23  1  0  0  0  0
 23 24  1  0  0  0  0
 23 25  1  0  0  0  0
 23 26  1  0  0  0  0
M  END
> <VM2 Rank>
72

> <Conf_Id>
523

> <Probability>
0.41

> <Sum Probability>
92.78

> <Delta G>
1.716

> <G>
49.977

> <E>
17.088

> <-TS>
32.889

> <U+W>
-4.374

> <U>
49.255

> <W>
-53.629

> <W(PB)>
-55.893

> <W(SA)>
2.264

> <Valence>
3.394

> <Coulomb>
45.181

> <VdW>
0.680

> <VdW6>
-8.024

> <VdW12>
8.705

> <Bond>
0.231

> <Angle>
1.123

> <Pdih>
2.041

> <Idih>
0.000

> <Tether>
0.000

$$$$
VeraChem MOL file


 26 25  0  0  0  0  0  0  0  0999 V2000     
   20.6610   18.4706   19.4958 C   0  0  0  0  0  0  0  0  0  0  0  0
   20.7937   19.4937   19.1203 H   0  0  0  0  0  0  0  0  0  0  0  0
   21.5285   17.8790   19.1758 H   0  0  0  0  0  0  0  0  0  0  0  0
   19.7685   18.0445   19.0193 H   0  0  0  0  0  0  0  0  0  0  0  0
   20.5296   18.4573   21.0336 C   0  0  0  0  0  0  0  0  0  0  0  0
   21.4552   18.8520   21.4732 H   0  0  0  0  0  0  0  0  0  0  0  0
   20.4280   17.4197   21.3811 H   0  0  0  0  0  0  0  0  0  0  0  0
   19.3149   19.2890   21.5089 C   0  0  0  0  0  0  0  0  0  0  0  0
   19.4414   20.3372   21.2045 H   0  0  0  0  0  0  0  0  0  0  0  0
   18.4124   18.9268   20.9976 H   0  0  0  0  0  0  0  0  0  0  0  0
   19.0752   19.2171   23.0369 C   0  0  0  0  0  0  0  0  0  0  0  0
   18.9290   18.1690   23.3303 H   0  0  0  0  0  0  0  0  0  0  0  0
   18.1344   19.7365   23.2659 H   0  0  0  0  0  0  0  0  0  0  0  0
   20.2168   19.8519   23.8707 C   0  0  0  0  0  0  0  0  0  0  0  0
   21.1481   19.2891   23.7296 H   0  0  0  0  0  0  0  0  0  0  0  0
   20.4126   20.8673   23.4994 H   0  0  0  0  0  0  0  0  0  0  0  0
   19.8884   19.9347   25.3825 C   0  0  0  0  0  0  0  0  0  0  0  0
   19.0116   20.5798   25.5278 H   0  0  0  0  0  0  0  0  0  0  0  0
   20.7187   20.4243   25.9085 H   0  0  0  0  0  0  0  0  0  0  0  0
   19.6103   18.5673   26.0391 C   0  0  0  0  0  0  0  0  0  0  0  0
   19.3599   18.7149   27.0931 H   0  0  0  0  0  0  0  0  0  0  0  0
   18.7567   18.0897   25.5514 H   0  0  0  0  0  0  0  0  0  0  0  0
   20.7847   17.6110   25.9734 N   0  3  0  0  0  0  0  0  0  0  0  0
   20.5717   16.7144   26.4240 H   0  0  0  0  0  0  0  0  0  0  0  0
   21.6125   17.9929   26.4422 H   0  0  0  0  0  0  0  0  0  0  0  0
   21.0509   17.4066   25.0053 H   0  0  0  0  0  0  0  0  0  0  0  0
  1  2  1  0  0  0  0
  1  3  1  0  0  0  0
  1  4  1  0  0  0  0
  1  5  1  0  0  0  0
  5  6  1  0  0  0  0
  5  7  1  0  0  0  0
  5  8  1  0  0  0  0
  8  9  1  0  0  0  0
  8 10  1  0  0  0  0
  8 11  1  0  0  0  0
 11 12  1  0  0  0  0
 11 13  1  0  0  0  0
 11 14  1  0  0  0  0
 14 15  1  0  0  0  0
 14 16  1  0  0  0  0
 14 17  1  0  0  0  0
 17 18  1  0  0  0  0
 17 19  1  0  0  0  0
 17 20  1  0  0  0  0
 20 21  1  0  0  0  0
 20 22  1  0  0  0  0
 20 23  1  0  0  0  0
 23 24  1  0  0  0  0
 23 25  1  0  0  0  0
 23 26  1  0  0  0  0
M  END
> <VM2 Rank>
73

> <Conf_Id>
1307

> <Probability>
0.41

> <Sum Probability>
93.19

> <Delta G>
1.717

> <G>
49.979

> <E>
17.228

> <-TS>
32.751

> <U+W>
-4.234

> <U>
49.692

> <W>
-53.926

> <W(PB)>
-56.219

> <W(SA)>
2.294

> <Valence>
3.067

> <Coulomb>
45.912

> <VdW>
0.713

> <VdW6>
-7.810

> <VdW12>
8.523

> <Bond>
0.215

> <Angle>
0.854

> <Pdih>
1.997

> <Idih>
0.000

> <Tether>
0.000

$$$$
VeraChem MOL file


 26 25  0  0  0  0  0  0  0  0999 V2000     
   21.0217   19.8854   20.0283 C   0  0  0  0  0  0  0  0  0  0  0  0
   20.2520   20.4125   19.4495 H   0  0  0  0  0  0  0  0  0  0  0  0
   21.5772   20.6286   20.6151 H   0  0  0  0  0  0  0  0  0  0  0  0
   21.7210   19.4255   19.3180 H   0  0  0  0  0  0  0  0  0  0  0  0
   20.3918   18.8144   20.9439 C   0  0  0  0  0  0  0  0  0  0  0  0
   21.1930   18.2832   21.4747 H   0  0  0  0  0  0  0  0  0  0  0  0
   19.8692   18.0695   20.3278 H   0  0  0  0  0  0  0  0  0  0  0  0
   19.4040   19.4396   21.9567 C   0  0  0  0  0  0  0  0  0  0  0  0
   19.9323   20.1600   22.5949 H   0  0  0  0  0  0  0  0  0  0  0  0
   18.6502   20.0202   21.4072 H   0  0  0  0  0  0  0  0  0  0  0  0
   18.6696   18.3921   22.8328 C   0  0  0  0  0  0  0  0  0  0  0  0
   18.0640   17.7467   22.1818 H   0  0  0  0  0  0  0  0  0  0  0  0
   17.9518   18.9134   23.4804 H   0  0  0  0  0  0  0  0  0  0  0  0
   19.5895   17.4944   23.7039 C   0  0  0  0  0  0  0  0  0  0  0  0
   18.9581   16.8208   24.2996 H   0  0  0  0  0  0  0  0  0  0  0  0
   20.1876   16.8410   23.0549 H   0  0  0  0  0  0  0  0  0  0  0  0
   20.5358   18.2654   24.6572 C   0  0  0  0  0  0  0  0  0  0  0  0
   21.2576   18.8531   24.0758 H   0  0  0  0  0  0  0  0  0  0  0  0
   21.1236   17.5405   25.2359 H   0  0  0  0  0  0  0  0  0  0  0  0
   19.7769   19.1884   25.6284 C   0  0  0  0  0  0  0  0  0  0  0  0
   19.2164   19.9375   25.0630 H   0  0  0  0  0  0  0  0  0  0  0  0
   19.0683   18.5998   26.2173 H   0  0  0  0  0  0  0  0  0  0  0  0
   20.6917   19.9192   26.5898 N   0  3  0  0  0  0  0  0  0  0  0  0
   21.2293   19.2698   27.1733 H   0  0  0  0  0  0  0  0  0  0  0  0
   20.1666   20.5279   27.2270 H   0  0  0  0  0  0  0  0  0  0  0  0
   21.3672   20.5132   26.0980 H   0  0  0  0  0  0  0  0  0  0  0  0
  1  2  1  0  0  0  0
  1  3  1  0  0  0  0
  1  4  1  0  0  0  0
  1  5  1  0  0  0  0
  5  6  1  0  0  0  0
  5  7  1  0  0  0  0
  5  8  1  0  0  0  0
  8  9  1  0  0  0  0
  8 10  1  0  0  0  0
  8 11  1  0  0  0  0
 11 12  1  0  0  0  0
 11 13  1  0  0  0  0
 11 14  1  0  0  0  0
 14 15  1  0  0  0  0
 14 16  1  0  0  0  0
 14 17  1  0  0  0  0
 17 18  1  0  0  0  0
 17 19  1  0  0  0  0
 17 20  1  0  0  0  0
 20 21  1  0  0  0  0
 20 22  1  0  0  0  0
 20 23  1  0  0  0  0
 23 24  1  0  0  0  0
 23 25  1  0  0  0  0
 23 26  1  0  0  0  0
M  END
> <VM2 Rank>
74

> <Conf_Id>
286

> <Probability>
0.39

> <Sum Probability>
93.58

> <Delta G>
1.738

> <G>
49.999

> <E>
16.961

> <-TS>
33.038

> <U+W>
-4.500

> <U>
49.453

> <W>
-53.954

> <W(PB)>
-56.228

> <W(SA)>
2.274

> <Valence>
3.376

> <Coulomb>
45.559

> <VdW>
0.518

> <VdW6>
-8.348

> <VdW12>
8.866

> <Bond>
0.240

> <Angle>
1.237

> <Pdih>
1.900

> <Idih>
0.000

> <Tether>
0.000

$$$$
VeraChem MOL file


 26 25  0  0  0  0  0  0  0  0999 V2000     
   19.1947   20.2325   20.6279 C   0  0  0  0  0  0  0  0  0  0  0  0
   19.3790   21.1354   20.0315 H   0  0  0  0  0  0  0  0  0  0  0  0
   18.2724   19.7670   20.2571 H   0  0  0  0  0  0  0  0  0  0  0  0
   19.0275   20.5501   21.6647 H   0  0  0  0  0  0  0  0  0  0  0  0
   20.3903   19.2592   20.5199 C   0  0  0  0  0  0  0  0  0  0  0  0
   21.2955   19.7388   20.9156 H   0  0  0  0  0  0  0  0  0  0  0  0
   20.5935   19.0651   19.4575 H   0  0  0  0  0  0  0  0  0  0  0  0
   20.1478   17.9034   21.2310 C   0  0  0  0  0  0  0  0  0  0  0  0
   19.3131   17.3876   20.7368 H   0  0  0  0  0  0  0  0  0  0  0  0
   21.0277   17.2627   21.0810 H   0  0  0  0  0  0  0  0  0  0  0  0
   19.8453   17.9976   22.7488 C   0  0  0  0  0  0  0  0  0  0  0  0
   19.6779   16.9812   23.1311 H   0  0  0  0  0  0  0  0  0  0  0  0
   18.9024   18.5377   22.9029 H   0  0  0  0  0  0  0  0  0  0  0  0
   20.9832   18.6621   23.5639 C   0  0  0  0  0  0  0  0  0  0  0  0
   21.9335   18.1617   23.3323 H   0  0  0  0  0  0  0  0  0  0  0  0
   21.1004   19.7113   23.2616 H   0  0  0  0  0  0  0  0  0  0  0  0
   20.7474   18.6006   25.0912 C   0  0  0  0  0  0  0  0  0  0  0  0
   21.6258   19.0136   25.6046 H   0  0  0  0  0  0  0  0  0  0  0  0
   20.6604   17.5533   25.4098 H   0  0  0  0  0  0  0  0  0  0  0  0
   19.4942   19.3814   25.5295 C   0  0  0  0  0  0  0  0  0  0  0  0
   19.5818   20.4246   25.2142 H   0  0  0  0  0  0  0  0  0  0  0  0
   18.6068   18.9521   25.0573 H   0  0  0  0  0  0  0  0  0  0  0  0
   19.2781   19.3623   27.0288 N   0  3  0  0  0  0  0  0  0  0  0  0
   18.4394   19.8872   27.2998 H   0  0  0  0  0  0  0  0  0  0  0  0
   20.0670   19.7791   27.5339 H   0  0  0  0  0  0  0  0  0  0  0  0
   19.1615   18.4083   27.3859 H   0  0  0  0  0  0  0  0  0  0  0  0
  1  2  1  0  0  0  0
  1  3  1  0  0  0  0
  1  4  1  0  0  0  0
  1  5  1  0  0  0  0
  5  6  1  0  0  0  0
  5  7  1  0  0  0  0
  5  8  1  0  0  0  0
  8  9  1  0  0  0  0
  8 10  1  0  0  0  0
  8 11  1  0  0  0  0
 11 12  1  0  0  0  0
 11 13  1  0  0  0  0
 11 14  1  0  0  0  0
 14 15  1  0  0  0  0
 14 16  1  0  0  0  0
 14 17  1  0  0  0  0
 17 18  1  0  0  0  0
 17 19  1  0  0  0  0
 17 20  1  0  0  0  0
 20 21  1  0  0  0  0
 20 22  1  0  0  0  0
 20 23  1  0  0  0  0
 23 24  1  0  0  0  0
 23 25  1  0  0  0  0
 23 26  1  0  0  0  0
M  END
> <VM2 Rank>
75

> <Conf_Id>
1108

> <Probability>
0.38

> <Sum Probability>
93.97

> <Delta G>
1.754

> <G>
50.015

> <E>
17.126

> <-TS>
32.889

> <U+W>
-4.336

> <U>
49.255

> <W>
-53.591

> <W(PB)>
-55.889

> <W(SA)>
2.298

> <Valence>
3.394

> <Coulomb>
45.181

> <VdW>
0.680

> <VdW6>
-8.024

> <VdW12>
8.704

> <Bond>
0.231

> <Angle>
1.123

> <Pdih>
2.041

> <Idih>
0.000

> <Tether>
0.000

$$$$
VeraChem MOL file


 26 25  0  0  0  0  0  0  0  0999 V2000     
   20.9277   18.3411   20.0341 C   0  0  0  0  0  0  0  0  0  0  0  0
   21.3555   17.7949   20.8841 H   0  0  0  0  0  0  0  0  0  0  0  0
   20.8433   17.6361   19.1971 H   0  0  0  0  0  0  0  0  0  0  0  0
   21.6334   19.1289   19.7403 H   0  0  0  0  0  0  0  0  0  0  0  0
   19.5446   18.9362   20.3824 C   0  0  0  0  0  0  0  0  0  0  0  0
   18.8628   18.1332   20.6925 H   0  0  0  0  0  0  0  0  0  0  0  0
   19.1056   19.3664   19.4714 H   0  0  0  0  0  0  0  0  0  0  0  0
   19.6037   20.0401   21.4691 C   0  0  0  0  0  0  0  0  0  0  0  0
   20.1852   20.8875   21.0807 H   0  0  0  0  0  0  0  0  0  0  0  0
   18.5886   20.4251   21.6378 H   0  0  0  0  0  0  0  0  0  0  0  0
   20.2099   19.6048   22.8285 C   0  0  0  0  0  0  0  0  0  0  0  0
   20.2210   20.4819   23.4888 H   0  0  0  0  0  0  0  0  0  0  0  0
   21.2605   19.3155   22.6939 H   0  0  0  0  0  0  0  0  0  0  0  0
   19.4321   18.4521   23.5127 C   0  0  0  0  0  0  0  0  0  0  0  0
   18.3772   18.7353   23.6319 H   0  0  0  0  0  0  0  0  0  0  0  0
   19.4462   17.5649   22.8663 H   0  0  0  0  0  0  0  0  0  0  0  0
   20.0193   18.0566   24.8881 C   0  0  0  0  0  0  0  0  0  0  0  0
   21.0714   17.7646   24.7700 H   0  0  0  0  0  0  0  0  0  0  0  0
   19.4872   17.1710   25.2603 H   0  0  0  0  0  0  0  0  0  0  0  0
   19.9077   19.1839   25.9318 C   0  0  0  0  0  0  0  0  0  0  0  0
   20.4731   20.0571   25.5966 H   0  0  0  0  0  0  0  0  0  0  0  0
   18.8603   19.4752   26.0479 H   0  0  0  0  0  0  0  0  0  0  0  0
   20.4358   18.7842   27.2944 N   0  3  0  0  0  0  0  0  0  0  0  0
   20.3524   19.5478   27.9743 H   0  0  0  0  0  0  0  0  0  0  0  0
   21.4267   18.5233   27.2586 H   0  0  0  0  0  0  0  0  0  0  0  0
   19.9265   17.9831   27.6816 H   0  0  0  0  0  0  0  0  0  0  0  0
  1  2  1  0  0  0  0
  1  3  1  0  0  0  0
  1  4  1  0  0  0  0
  1  5  1  0  0  0  0
  5  6  1  0  0  0  0
  5  7  1  0  0  0  0
  5  8  1  0  0  0  0
  8  9  1  0  0  0  0
  8 10  1  0  0  0  0
  8 11  1  0  0  0  0
 11 12  1  0  0  0  0
 11 13  1  0  0  0  0
 11 14  1  0  0  0  0
 14 15  1  0  0  0  0
 14 16  1  0  0  0  0
 14 17  1  0  0  0  0
 17 18  1  0  0  0  0
 17 19  1  0  0  0  0
 17 20  1  0  0  0  0
 20 21  1  0  0  0  0
 20 22  1  0  0  0  0
 20 23  1  0  0  0  0
 23 24  1  0  0  0  0
 23 25  1  0  0  0  0
 23 26  1  0  0  0  0
M  END
> <VM2 Rank>
76

> <Conf_Id>
1227

> <Probability>
0.37

> <Sum Probability>
94.33

> <Delta G>
1.782

> <G>
50.043

> <E>
17.176

> <-TS>
32.867

> <U+W>
-4.286

> <U>
49.209

> <W>
-53.495

> <W(PB)>
-55.781

> <W(SA)>
2.286

> <Valence>
3.465

> <Coulomb>
44.958

> <VdW>
0.786

> <VdW6>
-7.903

> <VdW12>
8.689

> <Bond>
0.237

> <Angle>
1.212

> <Pdih>
2.015

> <Idih>
0.000

> <Tether>
0.000

$$$$
VeraChem MOL file


 26 25  0  0  0  0  0  0  0  0999 V2000     
   20.3374   17.9517   20.0146 C   0  0  0  0  0  0  0  0  0  0  0  0
   19.3503   17.6233   19.6644 H   0  0  0  0  0  0  0  0  0  0  0  0
   21.0569   17.7768   19.2044 H   0  0  0  0  0  0  0  0  0  0  0  0
   20.6315   17.3174   20.8601 H   0  0  0  0  0  0  0  0  0  0  0  0
   20.3180   19.4460   20.4082 C   0  0  0  0  0  0  0  0  0  0  0  0
   20.1378   20.0468   19.5058 H   0  0  0  0  0  0  0  0  0  0  0  0
   21.3090   19.7461   20.7741 H   0  0  0  0  0  0  0  0  0  0  0  0
   19.2305   19.7940   21.4566 C   0  0  0  0  0  0  0  0  0  0  0  0
   19.2679   20.8730   21.6604 H   0  0  0  0  0  0  0  0  0  0  0  0
   18.2418   19.6061   21.0157 H   0  0  0  0  0  0  0  0  0  0  0  0
   19.3287   19.0239   22.7991 C   0  0  0  0  0  0  0  0  0  0  0  0
   19.1880   17.9491   22.6248 H   0  0  0  0  0  0  0  0  0  0  0  0
   18.4882   19.3395   23.4309 H   0  0  0  0  0  0  0  0  0  0  0  0
   20.6612   19.2627   23.5537 C   0  0  0  0  0  0  0  0  0  0  0  0
   21.5006   18.9198   22.9350 H   0  0  0  0  0  0  0  0  0  0  0  0
   20.8098   20.3396   23.7132 H   0  0  0  0  0  0  0  0  0  0  0  0
   20.7298   18.5252   24.9118 C   0  0  0  0  0  0  0  0  0  0  0  0
   21.7348   18.6533   25.3353 H   0  0  0  0  0  0  0  0  0  0  0  0
   20.5903   17.4474   24.7538 H   0  0  0  0  0  0  0  0  0  0  0  0
   19.6896   19.0400   25.9245 C   0  0  0  0  0  0  0  0  0  0  0  0
   19.8281   20.1133   26.0804 H   0  0  0  0  0  0  0  0  0  0  0  0
   18.6812   18.8754   25.5367 H   0  0  0  0  0  0  0  0  0  0  0  0
   19.7858   18.3554   27.2726 N   0  3  0  0  0  0  0  0  0  0  0  0
   19.0856   18.7122   27.9320 H   0  0  0  0  0  0  0  0  0  0  0  0
   20.7037   18.4953   27.7075 H   0  0  0  0  0  0  0  0  0  0  0  0
   19.6379   17.3435   27.1987 H   0  0  0  0  0  0  0  0  0  0  0  0
  1  2  1  0  0  0  0
  1  3  1  0  0  0  0
  1  4  1  0  0  0  0
  1  5  1  0  0  0  0
  5  6  1  0  0  0  0
  5  7  1  0  0  0  0
  5  8  1  0  0  0  0
  8  9  1  0  0  0  0
  8 10  1  0  0  0  0
  8 11  1  0  0  0  0
 11 12  1  0  0  0  0
 11 13  1  0  0  0  0
 11 14  1  0  0  0  0
 14 15  1  0  0  0  0
 14 16  1  0  0  0  0
 14 17  1  0  0  0  0
 17 18  1  0  0  0  0
 17 19  1  0  0  0  0
 17 20  1  0  0  0  0
 20 21  1  0  0  0  0
 20 22  1  0  0  0  0
 20 23  1  0  0  0  0
 23 24  1  0  0  0  0
 23 25  1  0  0  0  0
 23 26  1  0  0  0  0
M  END
> <VM2 Rank>
77

> <Conf_Id>
1482

> <Probability>
0.35

> <Sum Probability>
94.69

> <Delta G>
1.806

> <G>
50.067

> <E>
17.200

> <-TS>
32.867

> <U+W>
-4.261

> <U>
49.209

> <W>
-53.471

> <W(PB)>
-55.745

> <W(SA)>
2.274

> <Valence>
3.465

> <Coulomb>
44.958

> <VdW>
0.786

> <VdW6>
-7.903

> <VdW12>
8.690

> <Bond>
0.237

> <Angle>
1.212

> <Pdih>
2.015

> <Idih>
0.000

> <Tether>
0.000

$$$$
VeraChem MOL file


 26 25  0  0  0  0  0  0  0  0999 V2000     
   20.3765   19.1766   19.5970 C   0  0  0  0  0  0  0  0  0  0  0  0
   20.5086   20.2334   19.8593 H   0  0  0  0  0  0  0  0  0  0  0  0
   21.0228   18.9687   18.7344 H   0  0  0  0  0  0  0  0  0  0  0  0
   19.3361   19.0275   19.2802 H   0  0  0  0  0  0  0  0  0  0  0  0
   20.7367   18.2471   20.7782 C   0  0  0  0  0  0  0  0  0  0  0  0
   21.7699   18.4396   21.0993 H   0  0  0  0  0  0  0  0  0  0  0  0
   20.7134   17.2060   20.4269 H   0  0  0  0  0  0  0  0  0  0  0  0
   19.7785   18.3830   21.9864 C   0  0  0  0  0  0  0  0  0  0  0  0
   18.7476   18.1869   21.6613 H   0  0  0  0  0  0  0  0  0  0  0  0
   20.0316   17.5960   22.7085 H   0  0  0  0  0  0  0  0  0  0  0  0
   19.8542   19.7663   22.6812 C   0  0  0  0  0  0  0  0  0  0  0  0
   19.6088   20.5527   21.9561 H   0  0  0  0  0  0  0  0  0  0  0  0
   20.8853   19.9629   23.0039 H   0  0  0  0  0  0  0  0  0  0  0  0
   18.8850   19.9108   23.8834 C   0  0  0  0  0  0  0  0  0  0  0  0
   18.9661   20.9330   24.2783 H   0  0  0  0  0  0  0  0  0  0  0  0
   17.8510   19.8066   23.5267 H   0  0  0  0  0  0  0  0  0  0  0  0
   19.1209   18.9091   25.0414 C   0  0  0  0  0  0  0  0  0  0  0  0
   18.9017   17.8873   24.7067 H   0  0  0  0  0  0  0  0  0  0  0  0
   18.4076   19.1267   25.8474 H   0  0  0  0  0  0  0  0  0  0  0  0
   20.5524   18.9756   25.6052 C   0  0  0  0  0  0  0  0  0  0  0  0
   21.2698   18.7192   24.8213 H   0  0  0  0  0  0  0  0  0  0  0  0
   20.7656   19.9913   25.9491 H   0  0  0  0  0  0  0  0  0  0  0  0
   20.7767   18.0307   26.7680 N   0  3  0  0  0  0  0  0  0  0  0  0
   21.7354   18.0906   27.1281 H   0  0  0  0  0  0  0  0  0  0  0  0
   20.6179   17.0533   26.5025 H   0  0  0  0  0  0  0  0  0  0  0  0
   20.1500   18.2358   27.5531 H   0  0  0  0  0  0  0  0  0  0  0  0
  1  2  1  0  0  0  0
  1  3  1  0  0  0  0
  1  4  1  0  0  0  0
  1  5  1  0  0  0  0
  5  6  1  0  0  0  0
  5  7  1  0  0  0  0
  5  8  1  0  0  0  0
  8  9  1  0  0  0  0
  8 10  1  0  0  0  0
  8 11  1  0  0  0  0
 11 12  1  0  0  0  0
 11 13  1  0  0  0  0
 11 14  1  0  0  0  0
 14 15  1  0  0  0  0
 14 16  1  0  0  0  0
 14 17  1  0  0  0  0
 17 18  1  0  0  0  0
 17 19  1  0  0  0  0
 17 20  1  0  0  0  0
 20 21  1  0  0  0  0
 20 22  1  0  0  0  0
 20 23  1  0  0  0  0
 23 24  1  0  0  0  0
 23 25  1  0  0  0  0
 23 26  1  0  0  0  0
M  END
> <VM2 Rank>
78

> <Conf_Id>
823

> <Probability>
0.33

> <Sum Probability>
95.02

> <Delta G>
1.842

> <G>
50.103

> <E>
17.342

> <-TS>
32.761

> <U+W>
-4.120

> <U>
49.638

> <W>
-53.758

> <W(PB)>
-56.037

> <W(SA)>
2.279

> <Valence>
3.491

> <Coulomb>
45.361

> <VdW>
0.787

> <VdW6>
-7.914

> <VdW12>
8.701

> <Bond>
0.240

> <Angle>
1.203

> <Pdih>
2.047

> <Idih>
0.000

> <Tether>
0.000

$$$$
VeraChem MOL file


 26 25  0  0  0  0  0  0  0  0999 V2000     
   19.8068   18.8012   19.5780 C   0  0  0  0  0  0  0  0  0  0  0  0
   19.7833   18.1520   18.6931 H   0  0  0  0  0  0  0  0  0  0  0  0
   18.7724   19.0897   19.8014 H   0  0  0  0  0  0  0  0  0  0  0  0
   20.3681   19.7070   19.3146 H   0  0  0  0  0  0  0  0  0  0  0  0
   20.4634   18.0670   20.7692 C   0  0  0  0  0  0  0  0  0  0  0  0
   21.4446   17.6876   20.4514 H   0  0  0  0  0  0  0  0  0  0  0  0
   19.8648   17.1848   21.0359 H   0  0  0  0  0  0  0  0  0  0  0  0
   20.6596   18.9634   22.0159 C   0  0  0  0  0  0  0  0  0  0  0  0
   21.2488   18.3979   22.7492 H   0  0  0  0  0  0  0  0  0  0  0  0
   21.2606   19.8423   21.7452 H   0  0  0  0  0  0  0  0  0  0  0  0
   19.3274   19.4194   22.6636 C   0  0  0  0  0  0  0  0  0  0  0  0
   18.7260   18.5406   22.9318 H   0  0  0  0  0  0  0  0  0  0  0  0
   18.7358   19.9778   21.9269 H   0  0  0  0  0  0  0  0  0  0  0  0
   19.5204   20.3294   23.9047 C   0  0  0  0  0  0  0  0  0  0  0  0
   20.0397   21.2485   23.5998 H   0  0  0  0  0  0  0  0  0  0  0  0
   18.5317   20.6469   24.2638 H   0  0  0  0  0  0  0  0  0  0  0  0
   20.2933   19.6814   25.0806 C   0  0  0  0  0  0  0  0  0  0  0  0
   20.3368   20.3976   25.9119 H   0  0  0  0  0  0  0  0  0  0  0  0
   21.3332   19.4891   24.7879 H   0  0  0  0  0  0  0  0  0  0  0  0
   19.6425   18.3762   25.5748 C   0  0  0  0  0  0  0  0  0  0  0  0
   18.6101   18.5714   25.8771 H   0  0  0  0  0  0  0  0  0  0  0  0
   19.6319   17.6403   24.7665 H   0  0  0  0  0  0  0  0  0  0  0  0
   20.3676   17.7611   26.7542 N   0  3  0  0  0  0  0  0  0  0  0  0
   19.9184   16.8936   27.0673 H   0  0  0  0  0  0  0  0  0  0  0  0
   20.3896   18.3934   27.5610 H   0  0  0  0  0  0  0  0  0  0  0  0
   21.3398   17.5286   26.5263 H   0  0  0  0  0  0  0  0  0  0  0  0
  1  2  1  0  0  0  0
  1  3  1  0  0  0  0
  1  4  1  0  0  0  0
  1  5  1  0  0  0  0
  5  6  1  0  0  0  0
  5  7  1  0  0  0  0
  5  8  1  0  0  0  0
  8  9  1  0  0  0  0
  8 10  1  0  0  0  0
  8 11  1  0  0  0  0
 11 12  1  0  0  0  0
 11 13  1  0  0  0  0
 11 14  1  0  0  0  0
 14 15  1  0  0  0  0
 14 16  1  0  0  0  0
 14 17  1  0  0  0  0
 17 18  1  0  0  0  0
 17 19  1  0  0  0  0
 17 20  1  0  0  0  0
 20 21  1  0  0  0  0
 20 22  1  0  0  0  0
 20 23  1  0  0  0  0
 23 24  1  0  0  0  0
 23 25  1  0  0  0  0
 23 26  1  0  0  0  0
M  END
> <VM2 Rank>
79

> <Conf_Id>
1313

> <Probability>
0.33

> <Sum Probability>
95.35

> <Delta G>
1.844

> <G>
50.105

> <E>
17.343

> <-TS>
32.761

> <U+W>
-4.118

> <U>
49.638

> <W>
-53.757

> <W(PB)>
-56.049

> <W(SA)>
2.292

> <Valence>
3.491

> <Coulomb>
45.361

> <VdW>
0.787

> <VdW6>
-7.914

> <VdW12>
8.701

> <Bond>
0.240

> <Angle>
1.203

> <Pdih>
2.047

> <Idih>
0.000

> <Tether>
0.000

$$$$
VeraChem MOL file


 26 25  0  0  0  0  0  0  0  0999 V2000     
   19.0728   19.1979   20.0756 C   0  0  0  0  0  0  0  0  0  0  0  0
   19.7814   19.3691   19.2549 H   0  0  0  0  0  0  0  0  0  0  0  0
   18.1203   18.8755   19.6355 H   0  0  0  0  0  0  0  0  0  0  0  0
   18.8961   20.1548   20.5823 H   0  0  0  0  0  0  0  0  0  0  0  0
   19.6063   18.1286   21.0554 C   0  0  0  0  0  0  0  0  0  0  0  0
   19.6635   17.1649   20.5304 H   0  0  0  0  0  0  0  0  0  0  0  0
   18.8876   17.9835   21.8730 H   0  0  0  0  0  0  0  0  0  0  0  0
   21.0074   18.4637   21.6268 C   0  0  0  0  0  0  0  0  0  0  0  0
   21.3400   17.6346   22.2653 H   0  0  0  0  0  0  0  0  0  0  0  0
   21.7273   18.5027   20.7979 H   0  0  0  0  0  0  0  0  0  0  0  0
   21.0958   19.7948   22.4211 C   0  0  0  0  0  0  0  0  0  0  0  0
   20.9346   20.6373   21.7355 H   0  0  0  0  0  0  0  0  0  0  0  0
   22.1223   19.9124   22.7948 H   0  0  0  0  0  0  0  0  0  0  0  0
   20.1110   19.9217   23.6120 C   0  0  0  0  0  0  0  0  0  0  0  0
   20.2555   20.9066   24.0774 H   0  0  0  0  0  0  0  0  0  0  0  0
   19.0758   19.9102   23.2457 H   0  0  0  0  0  0  0  0  0  0  0  0
   20.2980   18.8262   24.6874 C   0  0  0  0  0  0  0  0  0  0  0  0
   21.3419   18.8172   25.0280 H   0  0  0  0  0  0  0  0  0  0  0  0
   20.0882   17.8378   24.2593 H   0  0  0  0  0  0  0  0  0  0  0  0
   19.3686   19.0589   25.8914 C   0  0  0  0  0  0  0  0  0  0  0  0
   19.5815   20.0341   26.3378 H   0  0  0  0  0  0  0  0  0  0  0  0
   18.3270   19.0528   25.5589 H   0  0  0  0  0  0  0  0  0  0  0  0
   19.5211   18.0072   26.9713 N   0  3  0  0  0  0  0  0  0  0  0  0
   18.8937   18.1815   27.7639 H   0  0  0  0  0  0  0  0  0  0  0  0
   20.4750   17.9803   27.3462 H   0  0  0  0  0  0  0  0  0  0  0  0
   19.3072   17.0672   26.6224 H   0  0  0  0  0  0  0  0  0  0  0  0
  1  2  1  0  0  0  0
  1  3  1  0  0  0  0
  1  4  1  0  0  0  0
  1  5  1  0  0  0  0
  5  6  1  0  0  0  0
  5  7  1  0  0  0  0
  5  8  1  0  0  0  0
  8  9  1  0  0  0  0
  8 10  1  0  0  0  0
  8 11  1  0  0  0  0
 11 12  1  0  0  0  0
 11 13  1  0  0  0  0
 11 14  1  0  0  0  0
 14 15  1  0  0  0  0
 14 16  1  0  0  0  0
 14 17  1  0  0  0  0
 17 18  1  0  0  0  0
 17 19  1  0  0  0  0
 17 20  1  0  0  0  0
 20 21  1  0  0  0  0
 20 22  1  0  0  0  0
 20 23  1  0  0  0  0
 23 24  1  0  0  0  0
 23 25  1  0  0  0  0
 23 26  1  0  0  0  0
M  END
> <VM2 Rank>
80

> <Conf_Id>
1466

> <Probability>
0.31

> <Sum Probability>
95.66

> <Delta G>
1.879

> <G>
50.140

> <E>
17.022

> <-TS>
33.118

> <U+W>
-4.440

> <U>
49.278

> <W>
-53.718

> <W(PB)>
-55.975

> <W(SA)>
2.257

> <Valence>
3.566

> <Coulomb>
45.108

> <VdW>
0.605

> <VdW6>
-8.326

> <VdW12>
8.930

> <Bond>
0.252

> <Angle>
1.371

> <Pdih>
1.943

> <Idih>
0.000

> <Tether>
0.000

$$$$
VeraChem MOL file


 26 25  0  0  0  0  0  0  0  0999 V2000     
   20.2772   19.9920   20.1156 C   0  0  0  0  0  0  0  0  0  0  0  0
   19.4443   20.5163   20.6004 H   0  0  0  0  0  0  0  0  0  0  0  0
   20.9680   20.7531   19.7303 H   0  0  0  0  0  0  0  0  0  0  0  0
   19.8797   19.4338   19.2581 H   0  0  0  0  0  0  0  0  0  0  0  0
   21.0042   19.0503   21.1019 C   0  0  0  0  0  0  0  0  0  0  0  0
   21.3818   19.6281   21.9561 H   0  0  0  0  0  0  0  0  0  0  0  0
   21.8912   18.6338   20.6046 H   0  0  0  0  0  0  0  0  0  0  0  0
   20.1195   17.8782   21.5972 C   0  0  0  0  0  0  0  0  0  0  0  0
   19.8393   17.2578   20.7349 H   0  0  0  0  0  0  0  0  0  0  0  0
   20.7206   17.2262   22.2446 H   0  0  0  0  0  0  0  0  0  0  0  0
   18.8253   18.2977   22.3453 C   0  0  0  0  0  0  0  0  0  0  0  0
   18.2965   17.3900   22.6671 H   0  0  0  0  0  0  0  0  0  0  0  0
   18.1467   18.7991   21.6424 H   0  0  0  0  0  0  0  0  0  0  0  0
   19.0402   19.2157   23.5762 C   0  0  0  0  0  0  0  0  0  0  0  0
   19.4747   20.1731   23.2591 H   0  0  0  0  0  0  0  0  0  0  0  0
   18.0573   19.4573   24.0039 H   0  0  0  0  0  0  0  0  0  0  0  0
   19.9227   18.5788   24.6749 C   0  0  0  0  0  0  0  0  0  0  0  0
   20.9328   18.3946   24.2877 H   0  0  0  0  0  0  0  0  0  0  0  0
   19.5049   17.6061   24.9667 H   0  0  0  0  0  0  0  0  0  0  0  0
   20.0182   19.4872   25.9132 C   0  0  0  0  0  0  0  0  0  0  0  0
   20.4487   20.4515   25.6299 H   0  0  0  0  0  0  0  0  0  0  0  0
   19.0181   19.6627   26.3190 H   0  0  0  0  0  0  0  0  0  0  0  0
   20.8737   18.8990   27.0166 N   0  3  0  0  0  0  0  0  0  0  0  0
   20.9234   19.5197   27.8319 H   0  0  0  0  0  0  0  0  0  0  0  0
   21.8373   18.7353   26.7071 H   0  0  0  0  0  0  0  0  0  0  0  0
   20.5060   18.0009   27.3474 H   0  0  0  0  0  0  0  0  0  0  0  0
  1  2  1  0  0  0  0
  1  3  1  0  0  0  0
  1  4  1  0  0  0  0
  1  5  1  0  0  0  0
  5  6  1  0  0  0  0
  5  7  1  0  0  0  0
  5  8  1  0  0  0  0
  8  9  1  0  0  0  0
  8 10  1  0  0  0  0
  8 11  1  0  0  0  0
 11 12  1  0  0  0  0
 11 13  1  0  0  0  0
 11 14  1  0  0  0  0
 14 15  1  0  0  0  0
 14 16  1  0  0  0  0
 14 17  1  0  0  0  0
 17 18  1  0  0  0  0
 17 19  1  0  0  0  0
 17 20  1  0  0  0  0
 20 21  1  0  0  0  0
 20 22  1  0  0  0  0
 20 23  1  0  0  0  0
 23 24  1  0  0  0  0
 23 25  1  0  0  0  0
 23 26  1  0  0  0  0
M  END
> <VM2 Rank>
81

> <Conf_Id>
1469

> <Probability>
0.31

> <Sum Probability>
95.97

> <Delta G>
1.884

> <G>
50.145

> <E>
17.027

> <-TS>
33.118

> <U+W>
-4.435

> <U>
49.278

> <W>
-53.712

> <W(PB)>
-55.986

> <W(SA)>
2.274

> <Valence>
3.566

> <Coulomb>
45.108

> <VdW>
0.604

> <VdW6>
-8.325

> <VdW12>
8.930

> <Bond>
0.252

> <Angle>
1.371

> <Pdih>
1.943

> <Idih>
0.000

> <Tether>
0.000

$$$$
VeraChem MOL file


 26 25  0  0  0  0  0  0  0  0999 V2000     
   18.5780   19.0173   20.4707 C   0  0  0  0  0  0  0  0  0  0  0  0
   18.2022   18.9658   19.4407 H   0  0  0  0  0  0  0  0  0  0  0  0
   18.2519   18.1056   20.9865 H   0  0  0  0  0  0  0  0  0  0  0  0
   18.1027   19.8780   20.9589 H   0  0  0  0  0  0  0  0  0  0  0  0
   20.1175   19.1540   20.4784 C   0  0  0  0  0  0  0  0  0  0  0  0
   20.4003   20.0113   19.8517 H   0  0  0  0  0  0  0  0  0  0  0  0
   20.5699   18.2686   20.0104 H   0  0  0  0  0  0  0  0  0  0  0  0
   20.7077   19.3577   21.8945 C   0  0  0  0  0  0  0  0  0  0  0  0
   21.7849   19.5520   21.8001 H   0  0  0  0  0  0  0  0  0  0  0  0
   20.2668   20.2590   22.3402 H   0  0  0  0  0  0  0  0  0  0  0  0
   20.4931   18.1410   22.8296 C   0  0  0  0  0  0  0  0  0  0  0  0
   20.8439   17.2327   22.3207 H   0  0  0  0  0  0  0  0  0  0  0  0
   19.4217   17.9921   23.0135 H   0  0  0  0  0  0  0  0  0  0  0  0
   21.2414   18.2651   24.1819 C   0  0  0  0  0  0  0  0  0  0  0  0
   21.0805   17.3464   24.7618 H   0  0  0  0  0  0  0  0  0  0  0  0
   22.3225   18.3099   23.9910 H   0  0  0  0  0  0  0  0  0  0  0  0
   20.8343   19.4910   25.0409 C   0  0  0  0  0  0  0  0  0  0  0  0
   21.1519   20.4144   24.5400 H   0  0  0  0  0  0  0  0  0  0  0  0
   21.3818   19.4630   25.9923 H   0  0  0  0  0  0  0  0  0  0  0  0
   19.3224   19.5777   25.3312 C   0  0  0  0  0  0  0  0  0  0  0  0
   19.1143   20.4819   25.9095 H   0  0  0  0  0  0  0  0  0  0  0  0
   18.7694   19.6409   24.3903 H   0  0  0  0  0  0  0  0  0  0  0  0
   18.7866   18.3952   26.1138 N   0  3  0  0  0  0  0  0  0  0  0  0
   19.2474   18.3023   27.0247 H   0  0  0  0  0  0  0  0  0  0  0  0
   18.9295   17.5142   25.6106 H   0  0  0  0  0  0  0  0  0  0  0  0
   17.7805   18.4812   26.2937 H   0  0  0  0  0  0  0  0  0  0  0  0
  1  2  1  0  0  0  0
  1  3  1  0  0  0  0
  1  4  1  0  0  0  0
  1  5  1  0  0  0  0
  5  6  1  0  0  0  0
  5  7  1  0  0  0  0
  5  8  1  0  0  0  0
  8  9  1  0  0  0  0
  8 10  1  0  0  0  0
  8 11  1  0  0  0  0
 11 12  1  0  0  0  0
 11 13  1  0  0  0  0
 11 14  1  0  0  0  0
 14 15  1  0  0  0  0
 14 16  1  0  0  0  0
 14 17  1  0  0  0  0
 17 18  1  0  0  0  0
 17 19  1  0  0  0  0
 17 20  1  0  0  0  0
 20 21  1  0  0  0  0
 20 22  1  0  0  0  0
 20 23  1  0  0  0  0
 23 24  1  0  0  0  0
 23 25  1  0  0  0  0
 23 26  1  0  0  0  0
M  END
> <VM2 Rank>
82

> <Conf_Id>
552

> <Probability>
0.24

> <Sum Probability>
96.20

> <Delta G>
2.046

> <G>
50.307

> <E>
17.280

> <-TS>
33.027

> <U+W>
-4.182

> <U>
49.856

> <W>
-54.038

> <W(PB)>
-56.299

> <W(SA)>
2.260

> <Valence>
3.483

> <Coulomb>
45.718

> <VdW>
0.655

> <VdW6>
-8.795

> <VdW12>
9.450

> <Bond>
0.257

> <Angle>
1.140

> <Pdih>
2.086

> <Idih>
0.000

> <Tether>
0.000

$$$$
VeraChem MOL file


 26 25  0  0  0  0  0  0  0  0999 V2000     
   20.6179   20.3637   20.5389 C   0  0  0  0  0  0  0  0  0  0  0  0
   21.5593   20.2889   21.0972 H   0  0  0  0  0  0  0  0  0  0  0  0
   20.8605   20.7204   19.5295 H   0  0  0  0  0  0  0  0  0  0  0  0
   19.9906   21.1241   21.0219 H   0  0  0  0  0  0  0  0  0  0  0  0
   19.8885   19.0028   20.4708 C   0  0  0  0  0  0  0  0  0  0  0  0
   20.5466   18.2531   20.0097 H   0  0  0  0  0  0  0  0  0  0  0  0
   19.0192   19.0995   19.8054 H   0  0  0  0  0  0  0  0  0  0  0  0
   19.4041   18.4972   21.8509 C   0  0  0  0  0  0  0  0  0  0  0  0
   18.7281   19.2433   22.2887 H   0  0  0  0  0  0  0  0  0  0  0  0
   18.8077   17.5868   21.7006 H   0  0  0  0  0  0  0  0  0  0  0  0
   20.5625   18.1868   22.8320 C   0  0  0  0  0  0  0  0  0  0  0  0
   21.1108   19.1070   23.0701 H   0  0  0  0  0  0  0  0  0  0  0  0
   21.2832   17.5226   22.3355 H   0  0  0  0  0  0  0  0  0  0  0  0
   20.0922   17.5066   24.1435 C   0  0  0  0  0  0  0  0  0  0  0  0
   19.6361   16.5368   23.9012 H   0  0  0  0  0  0  0  0  0  0  0  0
   20.9723   17.2751   24.7583 H   0  0  0  0  0  0  0  0  0  0  0  0
   19.0855   18.3369   24.9825 C   0  0  0  0  0  0  0  0  0  0  0  0
   18.8523   17.7936   25.9078 H   0  0  0  0  0  0  0  0  0  0  0  0
   18.1359   18.4239   24.4392 H   0  0  0  0  0  0  0  0  0  0  0  0
   19.5851   19.7511   25.3400 C   0  0  0  0  0  0  0  0  0  0  0  0
   19.7875   20.3130   24.4244 H   0  0  0  0  0  0  0  0  0  0  0  0
   18.8090   20.2804   25.8995 H   0  0  0  0  0  0  0  0  0  0  0  0
   20.8452   19.7539   26.1825 N   0  3  0  0  0  0  0  0  0  0  0  0
   21.1523   20.7066   26.4064 H   0  0  0  0  0  0  0  0  0  0  0  0
   21.6221   19.2913   25.7004 H   0  0  0  0  0  0  0  0  0  0  0  0
   20.7077   19.2659   27.0734 H   0  0  0  0  0  0  0  0  0  0  0  0
  1  2  1  0  0  0  0
  1  3  1  0  0  0  0
  1  4  1  0  0  0  0
  1  5  1  0  0  0  0
  5  6  1  0  0  0  0
  5  7  1  0  0  0  0
  5  8  1  0  0  0  0
  8  9  1  0  0  0  0
  8 10  1  0  0  0  0
  8 11  1  0  0  0  0
 11 12  1  0  0  0  0
 11 13  1  0  0  0  0
 11 14  1  0  0  0  0
 14 15  1  0  0  0  0
 14 16  1  0  0  0  0
 14 17  1  0  0  0  0
 17 18  1  0  0  0  0
 17 19  1  0  0  0  0
 17 20  1  0  0  0  0
 20 21  1  0  0  0  0
 20 22  1  0  0  0  0
 20 23  1  0  0  0  0
 23 24  1  0  0  0  0
 23 25  1  0  0  0  0
 23 26  1  0  0  0  0
M  END
> <VM2 Rank>
83

> <Conf_Id>
1294

> <Probability>
0.23

> <Sum Probability>
96.44

> <Delta G>
2.057

> <G>
50.318

> <E>
17.291

> <-TS>
33.027

> <U+W>
-4.170

> <U>
49.857

> <W>
-54.027

> <W(PB)>
-56.274

> <W(SA)>
2.247

> <Valence>
3.483

> <Coulomb>
45.718

> <VdW>
0.655

> <VdW6>
-8.795

> <VdW12>
9.450

> <Bond>
0.257

> <Angle>
1.140

> <Pdih>
2.086

> <Idih>
0.000

> <Tether>
0.000

$$$$
VeraChem MOL file


 26 25  0  0  0  0  0  0  0  0999 V2000     
   19.3228   19.5452   19.7458 C   0  0  0  0  0  0  0  0  0  0  0  0
   20.1075   20.1487   19.2712 H   0  0  0  0  0  0  0  0  0  0  0  0
   18.8680   18.9147   18.9709 H   0  0  0  0  0  0  0  0  0  0  0  0
   18.5489   20.2262   20.1234 H   0  0  0  0  0  0  0  0  0  0  0  0
   19.9012   18.6780   20.8839 C   0  0  0  0  0  0  0  0  0  0  0  0
   20.6498   17.9871   20.4717 H   0  0  0  0  0  0  0  0  0  0  0  0
   19.0969   18.0611   21.3061 H   0  0  0  0  0  0  0  0  0  0  0  0
   20.5453   19.5454   21.9908 C   0  0  0  0  0  0  0  0  0  0  0  0
   21.2993   20.2020   21.5353 H   0  0  0  0  0  0  0  0  0  0  0  0
   19.7897   20.2118   22.4272 H   0  0  0  0  0  0  0  0  0  0  0  0
   21.2312   18.7163   23.1072 C   0  0  0  0  0  0  0  0  0  0  0  0
   21.7113   19.4057   23.8145 H   0  0  0  0  0  0  0  0  0  0  0  0
   22.0492   18.1321   22.6637 H   0  0  0  0  0  0  0  0  0  0  0  0
   20.2959   17.7507   23.8839 C   0  0  0  0  0  0  0  0  0  0  0  0
   19.9445   16.9588   23.2093 H   0  0  0  0  0  0  0  0  0  0  0  0
   20.8845   17.2346   24.6542 H   0  0  0  0  0  0  0  0  0  0  0  0
   19.0686   18.4281   24.5478 C   0  0  0  0  0  0  0  0  0  0  0  0
   18.4943   17.6731   25.1009 H   0  0  0  0  0  0  0  0  0  0  0  0
   18.3930   18.8095   23.7715 H   0  0  0  0  0  0  0  0  0  0  0  0
   19.4332   19.5835   25.5013 C   0  0  0  0  0  0  0  0  0  0  0  0
   19.9801   20.3551   24.9533 H   0  0  0  0  0  0  0  0  0  0  0  0
   18.5175   20.0313   25.8969 H   0  0  0  0  0  0  0  0  0  0  0  0
   20.2828   19.1519   26.6801 N   0  3  0  0  0  0  0  0  0  0  0  0
   21.1722   18.7449   26.3748 H   0  0  0  0  0  0  0  0  0  0  0  0
   19.8077   18.4472   27.2532 H   0  0  0  0  0  0  0  0  0  0  0  0
   20.5069   19.9396   27.2976 H   0  0  0  0  0  0  0  0  0  0  0  0
  1  2  1  0  0  0  0
  1  3  1  0  0  0  0
  1  4  1  0  0  0  0
  1  5  1  0  0  0  0
  5  6  1  0  0  0  0
  5  7  1  0  0  0  0
  5  8  1  0  0  0  0
  8  9  1  0  0  0  0
  8 10  1  0  0  0  0
  8 11  1  0  0  0  0
 11 12  1  0  0  0  0
 11 13  1  0  0  0  0
 11 14  1  0  0  0  0
 14 15  1  0  0  0  0
 14 16  1  0  0  0  0
 14 17  1  0  0  0  0
 17 18  1  0  0  0  0
 17 19  1  0  0  0  0
 17 20  1  0  0  0  0
 20 21  1  0  0  0  0
 20 22  1  0  0  0  0
 20 23  1  0  0  0  0
 23 24  1  0  0  0  0
 23 25  1  0  0  0  0
 23 26  1  0  0  0  0
M  END
> <VM2 Rank>
84

> <Conf_Id>
1519

> <Probability>
0.20

> <Sum Probability>
96.64

> <Delta G>
2.129

> <G>
50.390

> <E>
17.161

> <-TS>
33.229

> <U+W>
-4.301

> <U>
49.634

> <W>
-53.935

> <W(PB)>
-56.178

> <W(SA)>
2.243

> <Valence>
3.474

> <Coulomb>
45.628

> <VdW>
0.532

> <VdW6>
-9.030

> <VdW12>
9.562

> <Bond>
0.265

> <Angle>
1.304

> <Pdih>
1.905

> <Idih>
0.000

> <Tether>
0.000

$$$$
VeraChem MOL file


 26 25  0  0  0  0  0  0  0  0999 V2000     
   19.8748   19.9097   19.7645 C   0  0  0  0  0  0  0  0  0  0  0  0
   19.0346   19.4411   19.2356 H   0  0  0  0  0  0  0  0  0  0  0  0
   19.5352   20.8772   20.1567 H   0  0  0  0  0  0  0  0  0  0  0  0
   20.6685   20.1030   19.0312 H   0  0  0  0  0  0  0  0  0  0  0  0
   20.3917   19.0016   20.9004 C   0  0  0  0  0  0  0  0  0  0  0  0
   21.2544   19.4846   21.3783 H   0  0  0  0  0  0  0  0  0  0  0  0
   20.7519   18.0545   20.4750 H   0  0  0  0  0  0  0  0  0  0  0  0
   19.2908   18.7174   21.9490 C   0  0  0  0  0  0  0  0  0  0  0  0
   18.9546   19.6606   22.3994 H   0  0  0  0  0  0  0  0  0  0  0  0
   18.4130   18.2974   21.4388 H   0  0  0  0  0  0  0  0  0  0  0  0
   19.7315   17.7266   23.0571 C   0  0  0  0  0  0  0  0  0  0  0  0
   19.9680   16.7586   22.5941 H   0  0  0  0  0  0  0  0  0  0  0  0
   18.8769   17.5353   23.7198 H   0  0  0  0  0  0  0  0  0  0  0  0
   20.9493   18.1817   23.9058 C   0  0  0  0  0  0  0  0  0  0  0  0
   21.1566   17.4142   24.6634 H   0  0  0  0  0  0  0  0  0  0  0  0
   21.8460   18.2134   23.2728 H   0  0  0  0  0  0  0  0  0  0  0  0
   20.7775   19.5556   24.6049 C   0  0  0  0  0  0  0  0  0  0  0  0
   20.7283   20.3502   23.8495 H   0  0  0  0  0  0  0  0  0  0  0  0
   21.6706   19.7689   25.2071 H   0  0  0  0  0  0  0  0  0  0  0  0
   19.5286   19.6465   25.5044 C   0  0  0  0  0  0  0  0  0  0  0  0
   19.4580   20.6520   25.9282 H   0  0  0  0  0  0  0  0  0  0  0  0
   18.6308   19.4648   24.9080 H   0  0  0  0  0  0  0  0  0  0  0  0
   19.5368   18.6598   26.6550 N   0  3  0  0  0  0  0  0  0  0  0  0
   20.3440   18.8010   27.2710 H   0  0  0  0  0  0  0  0  0  0  0  0
   19.5759   17.6919   26.3213 H   0  0  0  0  0  0  0  0  0  0  0  0
   18.6965   18.7454   27.2370 H   0  0  0  0  0  0  0  0  0  0  0  0
  1  2  1  0  0  0  0
  1  3  1  0  0  0  0
  1  4  1  0  0  0  0
  1  5  1  0  0  0  0
  5  6  1  0  0  0  0
  5  7  1  0  0  0  0
  5  8  1  0  0  0  0
  8  9  1  0  0  0  0
  8 10  1  0  0  0  0
  8 11  1  0  0  0  0
 11 12  1  0  0  0  0
 11 13  1  0  0  0  0
 11 14  1  0  0  0  0
 14 15  1  0  0  0  0
 14 16  1  0  0  0  0
 14 17  1  0  0  0  0
 17 18  1  0  0  0  0
 17 19  1  0  0  0  0
 17 20  1  0  0  0  0
 20 21  1  0  0  0  0
 20 22  1  0  0  0  0
 20 23  1  0  0  0  0
 23 24  1  0  0  0  0
 23 25  1  0  0  0  0
 23 26  1  0  0  0  0
M  END
> <VM2 Rank>
85

> <Conf_Id>
796

> <Probability>
0.20

> <Sum Probability>
96.84

> <Delta G>
2.134

> <G>
50.395

> <E>
17.165

> <-TS>
33.230

> <U+W>
-4.297

> <U>
49.635

> <W>
-53.931

> <W(PB)>
-56.188

> <W(SA)>
2.257

> <Valence>
3.474

> <Coulomb>
45.628

> <VdW>
0.532

> <VdW6>
-9.030

> <VdW12>
9.562

> <Bond>
0.265

> <Angle>
1.304

> <Pdih>
1.905

> <Idih>
0.000

> <Tether>
0.000

$$$$
VeraChem MOL file


 26 25  0  0  0  0  0  0  0  0999 V2000     
   19.2121   19.7187   20.1751 C   0  0  0  0  0  0  0  0  0  0  0  0
   18.3418   19.5223   20.8135 H   0  0  0  0  0  0  0  0  0  0  0  0
   19.0767   20.7116   19.7272 H   0  0  0  0  0  0  0  0  0  0  0  0
   19.2158   18.9809   19.3624 H   0  0  0  0  0  0  0  0  0  0  0  0
   20.5295   19.6631   20.9810 C   0  0  0  0  0  0  0  0  0  0  0  0
   20.4980   20.4003   21.7944 H   0  0  0  0  0  0  0  0  0  0  0  0
   21.3573   19.9713   20.3273 H   0  0  0  0  0  0  0  0  0  0  0  0
   20.8444   18.2549   21.5464 C   0  0  0  0  0  0  0  0  0  0  0  0
   20.9718   17.5574   20.7072 H   0  0  0  0  0  0  0  0  0  0  0  0
   21.8177   18.2834   22.0538 H   0  0  0  0  0  0  0  0  0  0  0  0
   19.7748   17.6759   22.5116 C   0  0  0  0  0  0  0  0  0  0  0  0
   20.1176   16.6943   22.8666 H   0  0  0  0  0  0  0  0  0  0  0  0
   18.8512   17.4790   21.9511 H   0  0  0  0  0  0  0  0  0  0  0  0
   19.4368   18.5625   23.7380 C   0  0  0  0  0  0  0  0  0  0  0  0
   19.0006   19.5133   23.4042 H   0  0  0  0  0  0  0  0  0  0  0  0
   18.6524   18.0567   24.3162 H   0  0  0  0  0  0  0  0  0  0  0  0
   20.6546   18.8386   24.6548 C   0  0  0  0  0  0  0  0  0  0  0  0
   21.4287   19.3746   24.0916 H   0  0  0  0  0  0  0  0  0  0  0  0
   21.1024   17.8907   24.9816 H   0  0  0  0  0  0  0  0  0  0  0  0
   20.2897   19.6877   25.8877 C   0  0  0  0  0  0  0  0  0  0  0  0
   21.2001   19.9305   26.4424 H   0  0  0  0  0  0  0  0  0  0  0  0
   19.8268   20.6244   25.5656 H   0  0  0  0  0  0  0  0  0  0  0  0
   19.3392   18.9976   26.8464 N   0  3  0  0  0  0  0  0  0  0  0  0
   19.1287   19.5836   27.6617 H   0  0  0  0  0  0  0  0  0  0  0  0
   19.7291   18.1187   27.2021 H   0  0  0  0  0  0  0  0  0  0  0  0
   18.4450   18.7735   26.3993 H   0  0  0  0  0  0  0  0  0  0  0  0
  1  2  1  0  0  0  0
  1  3  1  0  0  0  0
  1  4  1  0  0  0  0
  1  5  1  0  0  0  0
  5  6  1  0  0  0  0
  5  7  1  0  0  0  0
  5  8  1  0  0  0  0
  8  9  1  0  0  0  0
  8 10  1  0  0  0  0
  8 11  1  0  0  0  0
 11 12  1  0  0  0  0
 11 13  1  0  0  0  0
 11 14  1  0  0  0  0
 14 15  1  0  0  0  0
 14 16  1  0  0  0  0
 14 17  1  0  0  0  0
 17 18  1  0  0  0  0
 17 19  1  0  0  0  0
 17 20  1  0  0  0  0
 20 21  1  0  0  0  0
 20 22  1  0  0  0  0
 20 23  1  0  0  0  0
 23 24  1  0  0  0  0
 23 25  1  0  0  0  0
 23 26  1  0  0  0  0
M  END
> <VM2 Rank>
86

> <Conf_Id>
477

> <Probability>
0.19

> <Sum Probability>
97.04

> <Delta G>
2.164

> <G>
50.425

> <E>
17.208

> <-TS>
33.217

> <U+W>
-4.254

> <U>
49.638

> <W>
-53.891

> <W(PB)>
-56.131

> <W(SA)>
2.239

> <Valence>
3.691

> <Coulomb>
45.199

> <VdW>
0.747

> <VdW6>
-8.826

> <VdW12>
9.573

> <Bond>
0.278

> <Angle>
1.445

> <Pdih>
1.969

> <Idih>
0.000

> <Tether>
0.000

$$$$
VeraChem MOL file


 26 25  0  0  0  0  0  0  0  0999 V2000     
   19.2698   19.2735   19.9941 C   0  0  0  0  0  0  0  0  0  0  0  0
   18.4781   19.4438   20.7343 H   0  0  0  0  0  0  0  0  0  0  0  0
   19.6449   20.2495   19.6598 H   0  0  0  0  0  0  0  0  0  0  0  0
   18.8123   18.7752   19.1297 H   0  0  0  0  0  0  0  0  0  0  0  0
   20.4115   18.4094   20.5755 C   0  0  0  0  0  0  0  0  0  0  0  0
   21.1167   18.1661   19.7685 H   0  0  0  0  0  0  0  0  0  0  0  0
   20.0096   17.4478   20.9213 H   0  0  0  0  0  0  0  0  0  0  0  0
   21.1929   19.1071   21.7182 C   0  0  0  0  0  0  0  0  0  0  0  0
   21.9975   18.4394   22.0555 H   0  0  0  0  0  0  0  0  0  0  0  0
   21.6925   19.9974   21.3121 H   0  0  0  0  0  0  0  0  0  0  0  0
   20.3429   19.5318   22.9438 C   0  0  0  0  0  0  0  0  0  0  0  0
   19.5995   20.2812   22.6419 H   0  0  0  0  0  0  0  0  0  0  0  0
   21.0083   20.0371   23.6559 H   0  0  0  0  0  0  0  0  0  0  0  0
   19.6356   18.3460   23.6476 C   0  0  0  0  0  0  0  0  0  0  0  0
   18.9482   17.8595   22.9435 H   0  0  0  0  0  0  0  0  0  0  0  0
   20.3758   17.5852   23.9284 H   0  0  0  0  0  0  0  0  0  0  0  0
   18.8201   18.7752   24.8934 C   0  0  0  0  0  0  0  0  0  0  0  0
   18.3024   17.8992   25.3063 H   0  0  0  0  0  0  0  0  0  0  0  0
   18.0342   19.4781   24.5865 H   0  0  0  0  0  0  0  0  0  0  0  0
   19.6638   19.4307   26.0057 C   0  0  0  0  0  0  0  0  0  0  0  0
   20.1434   20.3351   25.6229 H   0  0  0  0  0  0  0  0  0  0  0  0
   19.0108   19.7184   26.8341 H   0  0  0  0  0  0  0  0  0  0  0  0
   20.7444   18.5254   26.5629 N   0  3  0  0  0  0  0  0  0  0  0  0
   21.2823   18.9858   27.3051 H   0  0  0  0  0  0  0  0  0  0  0  0
   21.4111   18.2436   25.8375 H   0  0  0  0  0  0  0  0  0  0  0  0
   20.3521   17.6677   26.9646 H   0  0  0  0  0  0  0  0  0  0  0  0
  1  2  1  0  0  0  0
  1  3  1  0  0  0  0
  1  4  1  0  0  0  0
  1  5  1  0  0  0  0
  5  6  1  0  0  0  0
  5  7  1  0  0  0  0
  5  8  1  0  0  0  0
  8  9  1  0  0  0  0
  8 10  1  0  0  0  0
  8 11  1  0  0  0  0
 11 12  1  0  0  0  0
 11 13  1  0  0  0  0
 11 14  1  0  0  0  0
 14 15  1  0  0  0  0
 14 16  1  0  0  0  0
 14 17  1  0  0  0  0
 17 18  1  0  0  0  0
 17 19  1  0  0  0  0
 17 20  1  0  0  0  0
 20 21  1  0  0  0  0
 20 22  1  0  0  0  0
 20 23  1  0  0  0  0
 23 24  1  0  0  0  0
 23 25  1  0  0  0  0
 23 26  1  0  0  0  0
M  END
> <VM2 Rank>
87

> <Conf_Id>
530

> <Probability>
0.18

> <Sum Probability>
97.22

> <Delta G>
2.205

> <G>
50.466

> <E>
17.411

> <-TS>
33.055

> <U+W>
-4.051

> <U>
49.822

> <W>
-53.873

> <W(PB)>
-56.119

> <W(SA)>
2.246

> <Valence>
3.548

> <Coulomb>
45.475

> <VdW>
0.799

> <VdW6>
-8.640

> <VdW12>
9.439

> <Bond>
0.263

> <Angle>
1.337

> <Pdih>
1.948

> <Idih>
0.000

> <Tether>
0.000

$$$$
VeraChem MOL file


 26 25  0  0  0  0  0  0  0  0999 V2000     
   19.9011   18.3946   19.6985 C   0  0  0  0  0  0  0  0  0  0  0  0
   20.4054   17.9842   18.8141 H   0  0  0  0  0  0  0  0  0  0  0  0
   19.2402   17.6128   20.0924 H   0  0  0  0  0  0  0  0  0  0  0  0
   19.2798   19.2376   19.3694 H   0  0  0  0  0  0  0  0  0  0  0  0
   20.9390   18.8466   20.7510 C   0  0  0  0  0  0  0  0  0  0  0  0
   21.6529   19.5303   20.2707 H   0  0  0  0  0  0  0  0  0  0  0  0
   21.5241   17.9803   21.0899 H   0  0  0  0  0  0  0  0  0  0  0  0
   20.3107   19.5638   21.9705 C   0  0  0  0  0  0  0  0  0  0  0  0
   21.1273   19.9609   22.5870 H   0  0  0  0  0  0  0  0  0  0  0  0
   19.7304   20.4313   21.6273 H   0  0  0  0  0  0  0  0  0  0  0  0
   19.4125   18.6414   22.8331 C   0  0  0  0  0  0  0  0  0  0  0  0
   19.9912   17.7708   23.1689 H   0  0  0  0  0  0  0  0  0  0  0  0
   18.5977   18.2439   22.2146 H   0  0  0  0  0  0  0  0  0  0  0  0
   18.7768   19.3601   24.0516 C   0  0  0  0  0  0  0  0  0  0  0  0
   18.1333   20.1746   23.6914 H   0  0  0  0  0  0  0  0  0  0  0  0
   18.1062   18.6581   24.5651 H   0  0  0  0  0  0  0  0  0  0  0  0
   19.7892   19.9381   25.0753 C   0  0  0  0  0  0  0  0  0  0  0  0
   19.2387   20.3718   25.9207 H   0  0  0  0  0  0  0  0  0  0  0  0
   20.3410   20.7706   24.6207 H   0  0  0  0  0  0  0  0  0  0  0  0
   20.7996   18.9034   25.6097 C   0  0  0  0  0  0  0  0  0  0  0  0
   21.3786   18.4906   24.7795 H   0  0  0  0  0  0  0  0  0  0  0  0
   21.4936   19.3943   26.2974 H   0  0  0  0  0  0  0  0  0  0  0  0
   20.1521   17.7509   26.3513 N   0  3  0  0  0  0  0  0  0  0  0  0
   20.8474   17.0805   26.6966 H   0  0  0  0  0  0  0  0  0  0  0  0
   19.5046   17.2321   25.7500 H   0  0  0  0  0  0  0  0  0  0  0  0
   19.6178   18.0743   27.1642 H   0  0  0  0  0  0  0  0  0  0  0  0
  1  2  1  0  0  0  0
  1  3  1  0  0  0  0
  1  4  1  0  0  0  0
  1  5  1  0  0  0  0
  5  6  1  0  0  0  0
  5  7  1  0  0  0  0
  5  8  1  0  0  0  0
  8  9  1  0  0  0  0
  8 10  1  0  0  0  0
  8 11  1  0  0  0  0
 11 12  1  0  0  0  0
 11 13  1  0  0  0  0
 11 14  1  0  0  0  0
 14 15  1  0  0  0  0
 14 16  1  0  0  0  0
 14 17  1  0  0  0  0
 17 18  1  0  0  0  0
 17 19  1  0  0  0  0
 17 20  1  0  0  0  0
 20 21  1  0  0  0  0
 20 22  1  0  0  0  0
 20 23  1  0  0  0  0
 23 24  1  0  0  0  0
 23 25  1  0  0  0  0
 23 26  1  0  0  0  0
M  END
> <VM2 Rank>
88

> <Conf_Id>
540

> <Probability>
0.18

> <Sum Probability>
97.40

> <Delta G>
2.208

> <G>
50.469

> <E>
17.492

> <-TS>
32.977

> <U+W>
-3.970

> <U>
49.925

> <W>
-53.895

> <W(PB)>
-56.135

> <W(SA)>
2.241

> <Valence>
3.593

> <Coulomb>
45.559

> <VdW>
0.774

> <VdW6>
-8.638

> <VdW12>
9.411

> <Bond>
0.265

> <Angle>
1.266

> <Pdih>
2.061

> <Idih>
0.000

> <Tether>
0.000

$$$$
VeraChem MOL file


 26 25  0  0  0  0  0  0  0  0999 V2000     
   20.1345   19.8435   20.0229 C   0  0  0  0  0  0  0  0  0  0  0  0
   20.2552   20.6150   20.7935 H   0  0  0  0  0  0  0  0  0  0  0  0
   20.8121   20.0934   19.1963 H   0  0  0  0  0  0  0  0  0  0  0  0
   19.1062   19.8948   19.6420 H   0  0  0  0  0  0  0  0  0  0  0  0
   20.4519   18.4361   20.5767 C   0  0  0  0  0  0  0  0  0  0  0  0
   21.4769   18.4149   20.9701 H   0  0  0  0  0  0  0  0  0  0  0  0
   20.4354   17.7174   19.7456 H   0  0  0  0  0  0  0  0  0  0  0  0
   19.4509   17.9591   21.6600 C   0  0  0  0  0  0  0  0  0  0  0  0
   18.4557   17.8645   21.2042 H   0  0  0  0  0  0  0  0  0  0  0  0
   19.7318   16.9463   21.9798 H   0  0  0  0  0  0  0  0  0  0  0  0
   19.3384   18.8696   22.9103 C   0  0  0  0  0  0  0  0  0  0  0  0
   18.5794   18.4365   23.5748 H   0  0  0  0  0  0  0  0  0  0  0  0
   18.9569   19.8576   22.6205 H   0  0  0  0  0  0  0  0  0  0  0  0
   20.6726   19.0290   23.6823 C   0  0  0  0  0  0  0  0  0  0  0  0
   21.0668   18.0402   23.9516 H   0  0  0  0  0  0  0  0  0  0  0  0
   21.4227   19.4894   23.0262 H   0  0  0  0  0  0  0  0  0  0  0  0
   20.5416   19.9092   24.9509 C   0  0  0  0  0  0  0  0  0  0  0  0
   20.2200   20.9179   24.6595 H   0  0  0  0  0  0  0  0  0  0  0  0
   21.5303   20.0256   25.4142 H   0  0  0  0  0  0  0  0  0  0  0  0
   19.5557   19.3596   26.0020 C   0  0  0  0  0  0  0  0  0  0  0  0
   19.5099   20.0475   26.8506 H   0  0  0  0  0  0  0  0  0  0  0  0
   18.5545   19.2885   25.5696 H   0  0  0  0  0  0  0  0  0  0  0  0
   19.9354   17.9928   26.5359 N   0  3  0  0  0  0  0  0  0  0  0  0
   19.2663   17.6581   27.2377 H   0  0  0  0  0  0  0  0  0  0  0  0
   20.8585   18.0017   26.9818 H   0  0  0  0  0  0  0  0  0  0  0  0
   19.9657   17.2915   25.7894 H   0  0  0  0  0  0  0  0  0  0  0  0
  1  2  1  0  0  0  0
  1  3  1  0  0  0  0
  1  4  1  0  0  0  0
  1  5  1  0  0  0  0
  5  6  1  0  0  0  0
  5  7  1  0  0  0  0
  5  8  1  0  0  0  0
  8  9  1  0  0  0  0
  8 10  1  0  0  0  0
  8 11  1  0  0  0  0
 11 12  1  0  0  0  0
 11 13  1  0  0  0  0
 11 14  1  0  0  0  0
 14 15  1  0  0  0  0
 14 16  1  0  0  0  0
 14 17  1  0  0  0  0
 17 18  1  0  0  0  0
 17 19  1  0  0  0  0
 17 20  1  0  0  0  0
 20 21  1  0  0  0  0
 20 22  1  0  0  0  0
 20 23  1  0  0  0  0
 23 24  1  0  0  0  0
 23 25  1  0  0  0  0
 23 26  1  0  0  0  0
M  END
> <VM2 Rank>
89

> <Conf_Id>
409

> <Probability>
0.17

> <Sum Probability>
97.57

> <Delta G>
2.225

> <G>
50.486

> <E>
17.432

> <-TS>
33.055

> <U+W>
-4.030

> <U>
49.822

> <W>
-53.852

> <W(PB)>
-56.097

> <W(SA)>
2.246

> <Valence>
3.548

> <Coulomb>
45.475

> <VdW>
0.799

> <VdW6>
-8.640

> <VdW12>
9.439

> <Bond>
0.263

> <Angle>
1.337

> <Pdih>
1.948

> <Idih>
0.000

> <Tether>
0.000

$$$$
VeraChem MOL file


 26 25  0  0  0  0  0  0  0  0999 V2000     
   20.7071   18.9251   19.7256 C   0  0  0  0  0  0  0  0  0  0  0  0
   20.1936   19.8389   19.3999 H   0  0  0  0  0  0  0  0  0  0  0  0
   21.6669   19.2103   20.1736 H   0  0  0  0  0  0  0  0  0  0  0  0
   20.9263   18.3268   18.8318 H   0  0  0  0  0  0  0  0  0  0  0  0
   19.8342   18.1191   20.7143 C   0  0  0  0  0  0  0  0  0  0  0  0
   20.3831   17.2289   21.0521 H   0  0  0  0  0  0  0  0  0  0  0  0
   18.9477   17.7490   20.1806 H   0  0  0  0  0  0  0  0  0  0  0  0
   19.3667   18.9423   21.9391 C   0  0  0  0  0  0  0  0  0  0  0  0
   18.8150   19.8285   21.5968 H   0  0  0  0  0  0  0  0  0  0  0  0
   18.6518   18.3309   22.5046 H   0  0  0  0  0  0  0  0  0  0  0  0
   20.5271   19.3756   22.8703 C   0  0  0  0  0  0  0  0  0  0  0  0
   21.2418   19.9854   22.3028 H   0  0  0  0  0  0  0  0  0  0  0  0
   21.0828   18.4899   23.2053 H   0  0  0  0  0  0  0  0  0  0  0  0
   20.0612   20.2061   24.0945 C   0  0  0  0  0  0  0  0  0  0  0  0
   20.9459   20.5282   24.6600 H   0  0  0  0  0  0  0  0  0  0  0  0
   19.5838   21.1299   23.7399 H   0  0  0  0  0  0  0  0  0  0  0  0
   19.0841   19.4740   25.0518 C   0  0  0  0  0  0  0  0  0  0  0  0
   18.1236   19.3108   24.5468 H   0  0  0  0  0  0  0  0  0  0  0  0
   18.8637   20.1248   25.9083 H   0  0  0  0  0  0  0  0  0  0  0  0
   19.6108   18.1207   25.5699 C   0  0  0  0  0  0  0  0  0  0  0  0
   18.8549   17.6568   26.2093 H   0  0  0  0  0  0  0  0  0  0  0  0
   19.8000   17.4514   24.7265 H   0  0  0  0  0  0  0  0  0  0  0  0
   20.8897   18.2362   26.3754 N   0  3  0  0  0  0  0  0  0  0  0  0
   21.2148   17.3221   26.7082 H   0  0  0  0  0  0  0  0  0  0  0  0
   20.7658   18.8297   27.2020 H   0  0  0  0  0  0  0  0  0  0  0  0
   21.6489   18.6435   25.8209 H   0  0  0  0  0  0  0  0  0  0  0  0
  1  2  1  0  0  0  0
  1  3  1  0  0  0  0
  1  4  1  0  0  0  0
  1  5  1  0  0  0  0
  5  6  1  0  0  0  0
  5  7  1  0  0  0  0
  5  8  1  0  0  0  0
  8  9  1  0  0  0  0
  8 10  1  0  0  0  0
  8 11  1  0  0  0  0
 11 12  1  0  0  0  0
 11 13  1  0  0  0  0
 11 14  1  0  0  0  0
 14 15  1  0  0  0  0
 14 16  1  0  0  0  0
 14 17  1  0  0  0  0
 17 18  1  0  0  0  0
 17 19  1  0  0  0  0
 17 20  1  0  0  0  0
 20 21  1  0  0  0  0
 20 22  1  0  0  0  0
 20 23  1  0  0  0  0
 23 24  1  0  0  0  0
 23 25  1  0  0  0  0
 23 26  1  0  0  0  0
M  END
> <VM2 Rank>
90

> <Conf_Id>
1513

> <Probability>
0.17

> <Sum Probability>
97.74

> <Delta G>
2.227

> <G>
50.488

> <E>
17.511

> <-TS>
32.977

> <U+W>
-3.951

> <U>
49.926

> <W>
-53.877

> <W(PB)>
-56.152

> <W(SA)>
2.275

> <Valence>
3.593

> <Coulomb>
45.559

> <VdW>
0.774

> <VdW6>
-8.638

> <VdW12>
9.412

> <Bond>
0.265

> <Angle>
1.266

> <Pdih>
2.061

> <Idih>
0.000

> <Tether>
0.000

$$$$
VeraChem MOL file


 26 25  0  0  0  0  0  0  0  0999 V2000     
   20.4315   19.2147   19.8954 C   0  0  0  0  0  0  0  0  0  0  0  0
   20.4732   20.2489   20.2593 H   0  0  0  0  0  0  0  0  0  0  0  0
   21.2721   19.0732   19.2040 H   0  0  0  0  0  0  0  0  0  0  0  0
   19.5021   19.0879   19.3252 H   0  0  0  0  0  0  0  0  0  0  0  0
   20.5112   18.2014   21.0594 C   0  0  0  0  0  0  0  0  0  0  0  0
   21.4408   18.3573   21.6227 H   0  0  0  0  0  0  0  0  0  0  0  0
   20.5785   17.1873   20.6414 H   0  0  0  0  0  0  0  0  0  0  0  0
   19.2903   18.2628   22.0121 C   0  0  0  0  0  0  0  0  0  0  0  0
   18.3848   18.0107   21.4434 H   0  0  0  0  0  0  0  0  0  0  0  0
   19.3899   17.4754   22.7708 H   0  0  0  0  0  0  0  0  0  0  0  0
   19.0697   19.6301   22.7133 C   0  0  0  0  0  0  0  0  0  0  0  0
   18.1851   19.5554   23.3598 H   0  0  0  0  0  0  0  0  0  0  0  0
   18.8126   20.3863   21.9598 H   0  0  0  0  0  0  0  0  0  0  0  0
   20.2732   20.1453   23.5477 C   0  0  0  0  0  0  0  0  0  0  0  0
   21.1148   20.3690   22.8788 H   0  0  0  0  0  0  0  0  0  0  0  0
   19.9965   21.1046   24.0065 H   0  0  0  0  0  0  0  0  0  0  0  0
   20.7524   19.1792   24.6594 C   0  0  0  0  0  0  0  0  0  0  0  0
   21.5938   19.6416   25.1922 H   0  0  0  0  0  0  0  0  0  0  0  0
   21.1406   18.2551   24.2126 H   0  0  0  0  0  0  0  0  0  0  0  0
   19.6415   18.8397   25.6703 C   0  0  0  0  0  0  0  0  0  0  0  0
   19.2640   19.7596   26.1247 H   0  0  0  0  0  0  0  0  0  0  0  0
   18.8137   18.3445   25.1559 H   0  0  0  0  0  0  0  0  0  0  0  0
   20.1112   17.9257   26.7835 N   0  3  0  0  0  0  0  0  0  0  0  0
   20.4550   17.0297   26.4230 H   0  0  0  0  0  0  0  0  0  0  0  0
   19.3567   17.7122   27.4449 H   0  0  0  0  0  0  0  0  0  0  0  0
   20.8734   18.3454   27.3259 H   0  0  0  0  0  0  0  0  0  0  0  0
  1  2  1  0  0  0  0
  1  3  1  0  0  0  0
  1  4  1  0  0  0  0
  1  5  1  0  0  0  0
  5  6  1  0  0  0  0
  5  7  1  0  0  0  0
  5  8  1  0  0  0  0
  8  9  1  0  0  0  0
  8 10  1  0  0  0  0
  8 11  1  0  0  0  0
 11 12  1  0  0  0  0
 11 13  1  0  0  0  0
 11 14  1  0  0  0  0
 14 15  1  0  0  0  0
 14 16  1  0  0  0  0
 14 17  1  0  0  0  0
 17 18  1  0  0  0  0
 17 19  1  0  0  0  0
 17 20  1  0  0  0  0
 20 21  1  0  0  0  0
 20 22  1  0  0  0  0
 20 23  1  0  0  0  0
 23 24  1  0  0  0  0
 23 25  1  0  0  0  0
 23 26  1  0  0  0  0
M  END
> <VM2 Rank>
91

> <Conf_Id>
1056

> <Probability>
0.16

> <Sum Probability>
97.91

> <Delta G>
2.276

> <G>
50.537

> <E>
17.205

> <-TS>
33.332

> <U+W>
-4.257

> <U>
49.824

> <W>
-54.082

> <W(PB)>
-56.299

> <W(SA)>
2.217

> <Valence>
3.796

> <Coulomb>
45.507

> <VdW>
0.521

> <VdW6>
-9.173

> <VdW12>
9.695

> <Bond>
0.280

> <Angle>
1.536

> <Pdih>
1.980

> <Idih>
0.000

> <Tether>
0.000

$$$$
VeraChem MOL file


 26 25  0  0  0  0  0  0  0  0999 V2000     
   20.9536   19.8916   20.4480 C   0  0  0  0  0  0  0  0  0  0  0  0
   21.9839   20.1514   20.1728 H   0  0  0  0  0  0  0  0  0  0  0  0
   20.3674   19.8163   19.5229 H   0  0  0  0  0  0  0  0  0  0  0  0
   20.5510   20.7205   21.0433 H   0  0  0  0  0  0  0  0  0  0  0  0
   20.9220   18.5617   21.2345 C   0  0  0  0  0  0  0  0  0  0  0  0
   21.5041   18.6645   22.1599 H   0  0  0  0  0  0  0  0  0  0  0  0
   21.4316   17.7886   20.6428 H   0  0  0  0  0  0  0  0  0  0  0  0
   19.4871   18.0720   21.5559 C   0  0  0  0  0  0  0  0  0  0  0  0
   18.9600   17.8776   20.6117 H   0  0  0  0  0  0  0  0  0  0  0  0
   19.5474   17.1004   22.0638 H   0  0  0  0  0  0  0  0  0  0  0  0
   18.6311   19.0476   22.4079 C   0  0  0  0  0  0  0  0  0  0  0  0
   17.6510   18.5860   22.5909 H   0  0  0  0  0  0  0  0  0  0  0  0
   18.4243   19.9539   21.8233 H   0  0  0  0  0  0  0  0  0  0  0  0
   19.2541   19.4582   23.7669 C   0  0  0  0  0  0  0  0  0  0  0  0
   20.1825   20.0168   23.5932 H   0  0  0  0  0  0  0  0  0  0  0  0
   18.5681   20.1570   24.2654 H   0  0  0  0  0  0  0  0  0  0  0  0
   19.5208   18.2579   24.7088 C   0  0  0  0  0  0  0  0  0  0  0  0
   20.2728   17.5881   24.2729 H   0  0  0  0  0  0  0  0  0  0  0  0
   18.6000   17.6696   24.8173 H   0  0  0  0  0  0  0  0  0  0  0  0
   19.9878   18.6974   26.1096 C   0  0  0  0  0  0  0  0  0  0  0  0
   19.2450   19.3665   26.5521 H   0  0  0  0  0  0  0  0  0  0  0  0
   20.0816   17.8186   26.7533 H   0  0  0  0  0  0  0  0  0  0  0  0
   21.3246   19.4126   26.1095 N   0  3  0  0  0  0  0  0  0  0  0  0
   22.0714   18.8237   25.7270 H   0  0  0  0  0  0  0  0  0  0  0  0
   21.6114   19.6827   27.0567 H   0  0  0  0  0  0  0  0  0  0  0  0
   21.2960   20.2698   25.5489 H   0  0  0  0  0  0  0  0  0  0  0  0
  1  2  1  0  0  0  0
  1  3  1  0  0  0  0
  1  4  1  0  0  0  0
  1  5  1  0  0  0  0
  5  6  1  0  0  0  0
  5  7  1  0  0  0  0
  5  8  1  0  0  0  0
  8  9  1  0  0  0  0
  8 10  1  0  0  0  0
  8 11  1  0  0  0  0
 11 12  1  0  0  0  0
 11 13  1  0  0  0  0
 11 14  1  0  0  0  0
 14 15  1  0  0  0  0
 14 16  1  0  0  0  0
 14 17  1  0  0  0  0
 17 18  1  0  0  0  0
 17 19  1  0  0  0  0
 17 20  1  0  0  0  0
 20 21  1  0  0  0  0
 20 22  1  0  0  0  0
 20 23  1  0  0  0  0
 23 24  1  0  0  0  0
 23 25  1  0  0  0  0
 23 26  1  0  0  0  0
M  END
> <VM2 Rank>
92

> <Conf_Id>
573

> <Probability>
0.16

> <Sum Probability>
98.06

> <Delta G>
2.287

> <G>
50.548

> <E>
17.317

> <-TS>
33.231

> <U+W>
-4.145

> <U>
50.092

> <W>
-54.237

> <W(PB)>
-56.467

> <W(SA)>
2.230

> <Valence>
3.653

> <Coulomb>
45.798

> <VdW>
0.641

> <VdW6>
-8.933

> <VdW12>
9.574

> <Bond>
0.273

> <Angle>
1.380

> <Pdih>
2.000

> <Idih>
0.000

> <Tether>
0.000

$$$$
VeraChem MOL file


 26 25  0  0  0  0  0  0  0  0999 V2000     
   18.8842   18.5274   20.3782 C   0  0  0  0  0  0  0  0  0  0  0  0
   18.2534   17.6922   20.0474 H   0  0  0  0  0  0  0  0  0  0  0  0
   18.2533   19.2059   20.9658 H   0  0  0  0  0  0  0  0  0  0  0  0
   19.2270   19.0644   19.4844 H   0  0  0  0  0  0  0  0  0  0  0  0
   20.0809   18.0074   21.2061 C   0  0  0  0  0  0  0  0  0  0  0  0
   20.6183   17.2525   20.6154 H   0  0  0  0  0  0  0  0  0  0  0  0
   19.7145   17.4850   22.0998 H   0  0  0  0  0  0  0  0  0  0  0  0
   21.0796   19.1220   21.6091 C   0  0  0  0  0  0  0  0  0  0  0  0
   21.9245   18.6675   22.1433 H   0  0  0  0  0  0  0  0  0  0  0  0
   21.5095   19.5584   20.6970 H   0  0  0  0  0  0  0  0  0  0  0  0
   20.4804   20.2668   22.4698 C   0  0  0  0  0  0  0  0  0  0  0  0
   19.7565   20.8322   21.8680 H   0  0  0  0  0  0  0  0  0  0  0  0
   21.2809   20.9791   22.7123 H   0  0  0  0  0  0  0  0  0  0  0  0
   19.7954   19.8148   23.7851 C   0  0  0  0  0  0  0  0  0  0  0  0
   19.4001   20.7051   24.2934 H   0  0  0  0  0  0  0  0  0  0  0  0
   18.9256   19.1880   23.5513 H   0  0  0  0  0  0  0  0  0  0  0  0
   20.7491   19.0673   24.7498 C   0  0  0  0  0  0  0  0  0  0  0  0
   21.6464   19.6772   24.9187 H   0  0  0  0  0  0  0  0  0  0  0  0
   21.0885   18.1256   24.3001 H   0  0  0  0  0  0  0  0  0  0  0  0
   20.0970   18.7692   26.1134 C   0  0  0  0  0  0  0  0  0  0  0  0
   20.8372   18.3163   26.7785 H   0  0  0  0  0  0  0  0  0  0  0  0
   19.7543   19.7020   26.5693 H   0  0  0  0  0  0  0  0  0  0  0  0
   18.9143   17.8242   26.0296 N   0  3  0  0  0  0  0  0  0  0  0  0
   18.5098   17.6385   26.9538 H   0  0  0  0  0  0  0  0  0  0  0  0
   19.1790   16.9176   25.6310 H   0  0  0  0  0  0  0  0  0  0  0  0
   18.1645   18.2061   25.4451 H   0  0  0  0  0  0  0  0  0  0  0  0
  1  2  1  0  0  0  0
  1  3  1  0  0  0  0
  1  4  1  0  0  0  0
  1  5  1  0  0  0  0
  5  6  1  0  0  0  0
  5  7  1  0  0  0  0
  5  8  1  0  0  0  0
  8  9  1  0  0  0  0
  8 10  1  0  0  0  0
  8 11  1  0  0  0  0
 11 12  1  0  0  0  0
 11 13  1  0  0  0  0
 11 14  1  0  0  0  0
 14 15  1  0  0  0  0
 14 16  1  0  0  0  0
 14 17  1  0  0  0  0
 17 18  1  0  0  0  0
 17 19  1  0  0  0  0
 17 20  1  0  0  0  0
 20 21  1  0  0  0  0
 20 22  1  0  0  0  0
 20 23  1  0  0  0  0
 23 24  1  0  0  0  0
 23 25  1  0  0  0  0
 23 26  1  0  0  0  0
M  END
> <VM2 Rank>
93

> <Conf_Id>
792

> <Probability>
0.16

> <Sum Probability>
98.22

> <Delta G>
2.289

> <G>
50.550

> <E>
17.319

> <-TS>
33.231

> <U+W>
-4.142

> <U>
50.091

> <W>
-54.233

> <W(PB)>
-56.461

> <W(SA)>
2.228

> <Valence>
3.653

> <Coulomb>
45.797

> <VdW>
0.641

> <VdW6>
-8.932

> <VdW12>
9.573

> <Bond>
0.273

> <Angle>
1.380

> <Pdih>
2.000

> <Idih>
0.000

> <Tether>
0.000

$$$$
VeraChem MOL file


 26 25  0  0  0  0  0  0  0  0999 V2000     
   19.7361   18.7567   19.8722 C   0  0  0  0  0  0  0  0  0  0  0  0
   18.7533   19.1158   20.2020 H   0  0  0  0  0  0  0  0  0  0  0  0
   20.2448   19.5773   19.3500 H   0  0  0  0  0  0  0  0  0  0  0  0
   19.5674   17.9502   19.1471 H   0  0  0  0  0  0  0  0  0  0  0  0
   20.5811   18.2475   21.0617 C   0  0  0  0  0  0  0  0  0  0  0  0
   21.5051   17.7979   20.6722 H   0  0  0  0  0  0  0  0  0  0  0  0
   20.0460   17.4382   21.5761 H   0  0  0  0  0  0  0  0  0  0  0  0
   20.9608   19.3635   22.0678 C   0  0  0  0  0  0  0  0  0  0  0  0
   21.6094   18.9377   22.8448 H   0  0  0  0  0  0  0  0  0  0  0  0
   21.5752   20.1127   21.5498 H   0  0  0  0  0  0  0  0  0  0  0  0
   19.7597   20.0847   22.7364 C   0  0  0  0  0  0  0  0  0  0  0  0
   19.2017   20.6427   21.9728 H   0  0  0  0  0  0  0  0  0  0  0  0
   20.1464   20.8475   23.4253 H   0  0  0  0  0  0  0  0  0  0  0  0
   18.7743   19.1577   23.4976 C   0  0  0  0  0  0  0  0  0  0  0  0
   17.9811   19.7766   23.9392 H   0  0  0  0  0  0  0  0  0  0  0  0
   18.2689   18.4938   22.7837 H   0  0  0  0  0  0  0  0  0  0  0  0
   19.4210   18.3020   24.6149 C   0  0  0  0  0  0  0  0  0  0  0  0
   20.1375   17.5941   24.1792 H   0  0  0  0  0  0  0  0  0  0  0  0
   18.6406   17.6957   25.0935 H   0  0  0  0  0  0  0  0  0  0  0  0
   20.1228   19.1568   25.6864 C   0  0  0  0  0  0  0  0  0  0  0  0
   20.9272   19.7368   25.2266 H   0  0  0  0  0  0  0  0  0  0  0  0
   19.4056   19.8529   26.1294 H   0  0  0  0  0  0  0  0  0  0  0  0
   20.7251   18.3303   26.8041 N   0  3  0  0  0  0  0  0  0  0  0  0
   20.0146   17.7797   27.2972 H   0  0  0  0  0  0  0  0  0  0  0  0
   21.1872   18.9184   27.5062 H   0  0  0  0  0  0  0  0  0  0  0  0
   21.4293   17.6717   26.4558 H   0  0  0  0  0  0  0  0  0  0  0  0
  1  2  1  0  0  0  0
  1  3  1  0  0  0  0
  1  4  1  0  0  0  0
  1  5  1  0  0  0  0
  5  6  1  0  0  0  0
  5  7  1  0  0  0  0
  5  8  1  0  0  0  0
  8  9  1  0  0  0  0
  8 10  1  0  0  0  0
  8 11  1  0  0  0  0
 11 12  1  0  0  0  0
 11 13  1  0  0  0  0
 11 14  1  0  0  0  0
 14 15  1  0  0  0  0
 14 16  1  0  0  0  0
 14 17  1  0  0  0  0
 17 18  1  0  0  0  0
 17 19  1  0  0  0  0
 17 20  1  0  0  0  0
 20 21  1  0  0  0  0
 20 22  1  0  0  0  0
 20 23  1  0  0  0  0
 23 24  1  0  0  0  0
 23 25  1  0  0  0  0
 23 26  1  0  0  0  0
M  END
> <VM2 Rank>
94

> <Conf_Id>
176

> <Probability>
0.15

> <Sum Probability>
98.37

> <Delta G>
2.314

> <G>
50.575

> <E>
17.243

> <-TS>
33.332

> <U+W>
-4.219

> <U>
49.824

> <W>
-54.043

> <W(PB)>
-56.275

> <W(SA)>
2.232

> <Valence>
3.797

> <Coulomb>
45.507

> <VdW>
0.521

> <VdW6>
-9.173

> <VdW12>
9.694

> <Bond>
0.280

> <Angle>
1.536

> <Pdih>
1.980

> <Idih>
0.000

> <Tether>
0.000

$$$$
VeraChem MOL file


 26 25  0  0  0  0  0  0  0  0999 V2000     
   18.4608   18.7618   20.9239 C   0  0  0  0  0  0  0  0  0  0  0  0
   17.8464   18.0230   20.3932 H   0  0  0  0  0  0  0  0  0  0  0  0
   18.1612   18.7441   21.9786 H   0  0  0  0  0  0  0  0  0  0  0  0
   18.2229   19.7524   20.5151 H   0  0  0  0  0  0  0  0  0  0  0  0
   19.9626   18.4382   20.7551 C   0  0  0  0  0  0  0  0  0  0  0  0
   20.1873   18.3548   19.6826 H   0  0  0  0  0  0  0  0  0  0  0  0
   20.1803   17.4512   21.1843 H   0  0  0  0  0  0  0  0  0  0  0  0
   20.8972   19.5099   21.3721 C   0  0  0  0  0  0  0  0  0  0  0  0
   21.9401   19.2267   21.1739 H   0  0  0  0  0  0  0  0  0  0  0  0
   20.7399   20.4623   20.8473 H   0  0  0  0  0  0  0  0  0  0  0  0
   20.7191   19.7454   22.8941 C   0  0  0  0  0  0  0  0  0  0  0  0
   19.7113   20.1324   23.0911 H   0  0  0  0  0  0  0  0  0  0  0  0
   21.4134   20.5384   23.2042 H   0  0  0  0  0  0  0  0  0  0  0  0
   20.9862   18.4807   23.7485 C   0  0  0  0  0  0  0  0  0  0  0  0
   20.2497   17.7022   23.5126 H   0  0  0  0  0  0  0  0  0  0  0  0
   21.9676   18.0661   23.4802 H   0  0  0  0  0  0  0  0  0  0  0  0
   20.9689   18.7639   25.2714 C   0  0  0  0  0  0  0  0  0  0  0  0
   21.7657   19.4788   25.5160 H   0  0  0  0  0  0  0  0  0  0  0  0
   21.2087   17.8408   25.8156 H   0  0  0  0  0  0  0  0  0  0  0  0
   19.6275   19.3215   25.7889 C   0  0  0  0  0  0  0  0  0  0  0  0
   19.7085   19.5265   26.8598 H   0  0  0  0  0  0  0  0  0  0  0  0
   19.3966   20.2610   25.2803 H   0  0  0  0  0  0  0  0  0  0  0  0
   18.4587   18.3776   25.5871 N   0  3  0  0  0  0  0  0  0  0  0  0
   18.6027   17.4861   26.0725 H   0  0  0  0  0  0  0  0  0  0  0  0
   18.3136   18.1639   24.5958 H   0  0  0  0  0  0  0  0  0  0  0  0
   17.5825   18.7746   25.9434 H   0  0  0  0  0  0  0  0  0  0  0  0
  1  2  1  0  0  0  0
  1  3  1  0  0  0  0
  1  4  1  0  0  0  0
  1  5  1  0  0  0  0
  5  6  1  0  0  0  0
  5  7  1  0  0  0  0
  5  8  1  0  0  0  0
  8  9  1  0  0  0  0
  8 10  1  0  0  0  0
  8 11  1  0  0  0  0
 11 12  1  0  0  0  0
 11 13  1  0  0  0  0
 11 14  1  0  0  0  0
 14 15  1  0  0  0  0
 14 16  1  0  0  0  0
 14 17  1  0  0  0  0
 17 18  1  0  0  0  0
 17 19  1  0  0  0  0
 17 20  1  0  0  0  0
 20 21  1  0  0  0  0
 20 22  1  0  0  0  0
 20 23  1  0  0  0  0
 23 24  1  0  0  0  0
 23 25  1  0  0  0  0
 23 26  1  0  0  0  0
M  END
> <VM2 Rank>
95

> <Conf_Id>
1615

> <Probability>
0.10

> <Sum Probability>
98.47

> <Delta G>
2.555

> <G>
50.816

> <E>
17.763

> <-TS>
33.053

> <U+W>
-3.699

> <U>
50.414

> <W>
-54.113

> <W(PB)>
-56.311

> <W(SA)>
2.198

> <Valence>
3.472

> <Coulomb>
46.374

> <VdW>
0.568

> <VdW6>
-8.862

> <VdW12>
9.430

> <Bond>
0.255

> <Angle>
1.219

> <Pdih>
1.997

> <Idih>
0.000

> <Tether>
0.000

$$$$
VeraChem MOL file


 26 25  0  0  0  0  0  0  0  0999 V2000     
   20.8777   20.3568   21.0044 C   0  0  0  0  0  0  0  0  0  0  0  0
   20.0800   20.9779   20.5768 H   0  0  0  0  0  0  0  0  0  0  0  0
   20.9623   20.5928   22.0720 H   0  0  0  0  0  0  0  0  0  0  0  0
   21.8221   20.6466   20.5258 H   0  0  0  0  0  0  0  0  0  0  0  0
   20.5939   18.8548   20.7761 C   0  0  0  0  0  0  0  0  0  0  0  0
   21.3954   18.2531   21.2249 H   0  0  0  0  0  0  0  0  0  0  0  0
   20.6323   18.6484   19.6975 H   0  0  0  0  0  0  0  0  0  0  0  0
   19.2141   18.3992   21.3158 C   0  0  0  0  0  0  0  0  0  0  0  0
   18.4252   18.9347   20.7699 H   0  0  0  0  0  0  0  0  0  0  0  0
   19.0745   17.3356   21.0782 H   0  0  0  0  0  0  0  0  0  0  0  0
   18.9968   18.6089   22.8365 C   0  0  0  0  0  0  0  0  0  0  0  0
   17.9816   18.2737   23.0896 H   0  0  0  0  0  0  0  0  0  0  0  0
   19.0274   19.6810   23.0682 H   0  0  0  0  0  0  0  0  0  0  0  0
   20.0143   17.8394   23.7160 C   0  0  0  0  0  0  0  0  0  0  0  0
   20.0229   16.7827   23.4152 H   0  0  0  0  0  0  0  0  0  0  0  0
   21.0293   18.2168   23.5387 H   0  0  0  0  0  0  0  0  0  0  0  0
   19.6900   17.9198   25.2287 C   0  0  0  0  0  0  0  0  0  0  0  0
   20.4187   17.3194   25.7892 H   0  0  0  0  0  0  0  0  0  0  0  0
   18.7093   17.4617   25.4137 H   0  0  0  0  0  0  0  0  0  0  0  0
   19.6796   19.3559   25.7907 C   0  0  0  0  0  0  0  0  0  0  0  0
   18.9307   19.9536   25.2648 H   0  0  0  0  0  0  0  0  0  0  0  0
   19.4096   19.3292   26.8499 H   0  0  0  0  0  0  0  0  0  0  0  0
   21.0146   20.0643   25.6728 N   0  3  0  0  0  0  0  0  0  0  0  0
   20.9767   21.0146   26.0572 H   0  0  0  0  0  0  0  0  0  0  0  0
   21.3139   20.1440   24.6963 H   0  0  0  0  0  0  0  0  0  0  0  0
   21.7545   19.5660   26.1780 H   0  0  0  0  0  0  0  0  0  0  0  0
  1  2  1  0  0  0  0
  1  3  1  0  0  0  0
  1  4  1  0  0  0  0
  1  5  1  0  0  0  0
  5  6  1  0  0  0  0
  5  7  1  0  0  0  0
  5  8  1  0  0  0  0
  8  9  1  0  0  0  0
  8 10  1  0  0  0  0
  8 11  1  0  0  0  0
 11 12  1  0  0  0  0
 11 13  1  0  0  0  0
 11 14  1  0  0  0  0
 14 15  1  0  0  0  0
 14 16  1  0  0  0  0
 14 17  1  0  0  0  0
 17 18  1  0  0  0  0
 17 19  1  0  0  0  0
 17 20  1  0  0  0  0
 20 21  1  0  0  0  0
 20 22  1  0  0  0  0
 20 23  1  0  0  0  0
 23 24  1  0  0  0  0
 23 25  1  0  0  0  0
 23 26  1  0  0  0  0
M  END
> <VM2 Rank>
96

> <Conf_Id>
1253

> <Probability>
0.09

> <Sum Probability>
98.56

> <Delta G>
2.619

> <G>
50.880

> <E>
17.826

> <-TS>
33.053

> <U+W>
-3.635

> <U>
50.414

> <W>
-54.050

> <W(PB)>
-56.263

> <W(SA)>
2.213

> <Valence>
3.472

> <Coulomb>
46.374

> <VdW>
0.568

> <VdW6>
-8.861

> <VdW12>
9.429

> <Bond>
0.255

> <Angle>
1.219

> <Pdih>
1.997

> <Idih>
0.000

> <Tether>
0.000

$$$$
VeraChem MOL file


 26 25  0  0  0  0  0  0  0  0999 V2000     
   19.6816   18.6032   19.9255 C   0  0  0  0  0  0  0  0  0  0  0  0
   20.0863   17.9770   19.1199 H   0  0  0  0  0  0  0  0  0  0  0  0
   18.8656   18.0444   20.4004 H   0  0  0  0  0  0  0  0  0  0  0  0
   19.2592   19.5074   19.4686 H   0  0  0  0  0  0  0  0  0  0  0  0
   20.7894   18.9606   20.9420 C   0  0  0  0  0  0  0  0  0  0  0  0
   21.6308   19.4168   20.4021 H   0  0  0  0  0  0  0  0  0  0  0  0
   21.1853   18.0424   21.3960 H   0  0  0  0  0  0  0  0  0  0  0  0
   20.3185   19.9436   22.0438 C   0  0  0  0  0  0  0  0  0  0  0  0
   21.1730   20.1949   22.6860 H   0  0  0  0  0  0  0  0  0  0  0  0
   20.0183   20.8883   21.5701 H   0  0  0  0  0  0  0  0  0  0  0  0
   19.1441   19.4357   22.9228 C   0  0  0  0  0  0  0  0  0  0  0  0
   18.2447   19.3331   22.3014 H   0  0  0  0  0  0  0  0  0  0  0  0
   18.8976   20.2102   23.6612 H   0  0  0  0  0  0  0  0  0  0  0  0
   19.4027   18.0912   23.6543 C   0  0  0  0  0  0  0  0  0  0  0  0
   18.5121   17.8332   24.2427 H   0  0  0  0  0  0  0  0  0  0  0  0
   19.5053   17.2863   22.9145 H   0  0  0  0  0  0  0  0  0  0  0  0
   20.6466   18.0854   24.5809 C   0  0  0  0  0  0  0  0  0  0  0  0
   21.5569   18.1909   23.9771 H   0  0  0  0  0  0  0  0  0  0  0  0
   20.7251   17.1076   25.0743 H   0  0  0  0  0  0  0  0  0  0  0  0
   20.6315   19.1924   25.6539 C   0  0  0  0  0  0  0  0  0  0  0  0
   21.5537   19.1441   26.2392 H   0  0  0  0  0  0  0  0  0  0  0  0
   20.5854   20.1724   25.1719 H   0  0  0  0  0  0  0  0  0  0  0  0
   19.4665   19.0870   26.6179 N   0  3  0  0  0  0  0  0  0  0  0  0
   19.4727   18.1964   27.1255 H   0  0  0  0  0  0  0  0  0  0  0  0
   18.5674   19.1521   26.1309 H   0  0  0  0  0  0  0  0  0  0  0  0
   19.4844   19.8335   27.3210 H   0  0  0  0  0  0  0  0  0  0  0  0
  1  2  1  0  0  0  0
  1  3  1  0  0  0  0
  1  4  1  0  0  0  0
  1  5  1  0  0  0  0
  5  6  1  0  0  0  0
  5  7  1  0  0  0  0
  5  8  1  0  0  0  0
  8  9  1  0  0  0  0
  8 10  1  0  0  0  0
  8 11  1  0  0  0  0
 11 12  1  0  0  0  0
 11 13  1  0  0  0  0
 11 14  1  0  0  0  0
 14 15  1  0  0  0  0
 14 16  1  0  0  0  0
 14 17  1  0  0  0  0
 17 18  1  0  0  0  0
 17 19  1  0  0  0  0
 17 20  1  0  0  0  0
 20 21  1  0  0  0  0
 20 22  1  0  0  0  0
 20 23  1  0  0  0  0
 23 24  1  0  0  0  0
 23 25  1  0  0  0  0
 23 26  1  0  0  0  0
M  END
> <VM2 Rank>
97

> <Conf_Id>
864

> <Probability>
0.08

> <Sum Probability>
98.64

> <Delta G>
2.703

> <G>
50.964

> <E>
17.437

> <-TS>
33.527

> <U+W>
-4.025

> <U>
50.052

> <W>
-54.076

> <W(PB)>
-56.271

> <W(SA)>
2.194

> <Valence>
3.896

> <Coulomb>
45.624

> <VdW>
0.532

> <VdW6>
-9.866

> <VdW12>
10.398

> <Bond>
0.306

> <Angle>
1.610

> <Pdih>
1.981

> <Idih>
0.000

> <Tether>
0.000

$$$$
VeraChem MOL file


 26 25  0  0  0  0  0  0  0  0999 V2000     
   20.5432   19.0159   19.2135 C   0  0  0  0  0  0  0  0  0  0  0  0
   19.5545   18.7087   18.8483 H   0  0  0  0  0  0  0  0  0  0  0  0
   20.6241   20.1054   19.1059 H   0  0  0  0  0  0  0  0  0  0  0  0
   21.2999   18.5560   18.5647 H   0  0  0  0  0  0  0  0  0  0  0  0
   20.7503   18.5866   20.6815 C   0  0  0  0  0  0  0  0  0  0  0  0
   21.7591   18.8770   21.0070 H   0  0  0  0  0  0  0  0  0  0  0  0
   20.6974   17.4910   20.7517 H   0  0  0  0  0  0  0  0  0  0  0  0
   19.6971   19.2207   21.6169 C   0  0  0  0  0  0  0  0  0  0  0  0
   19.7527   20.3156   21.5424 H   0  0  0  0  0  0  0  0  0  0  0  0
   18.6909   18.9303   21.2842 H   0  0  0  0  0  0  0  0  0  0  0  0
   19.9001   18.7919   23.0877 C   0  0  0  0  0  0  0  0  0  0  0  0
   20.9095   19.0838   23.4028 H   0  0  0  0  0  0  0  0  0  0  0  0
   19.8355   17.6975   23.1613 H   0  0  0  0  0  0  0  0  0  0  0  0
   18.8516   19.4393   24.0231 C   0  0  0  0  0  0  0  0  0  0  0  0
   18.9927   20.5290   24.0332 H   0  0  0  0  0  0  0  0  0  0  0  0
   17.8490   19.2646   23.6087 H   0  0  0  0  0  0  0  0  0  0  0  0
   18.8712   18.9033   25.4775 C   0  0  0  0  0  0  0  0  0  0  0  0
   18.6694   17.8240   25.4902 H   0  0  0  0  0  0  0  0  0  0  0  0
   18.0390   19.3716   26.0197 H   0  0  0  0  0  0  0  0  0  0  0  0
   20.1685   19.2076   26.2552 C   0  0  0  0  0  0  0  0  0  0  0  0
   20.5148   20.2175   26.0193 H   0  0  0  0  0  0  0  0  0  0  0  0
   19.9592   19.1629   27.3274 H   0  0  0  0  0  0  0  0  0  0  0  0
   21.2990   18.2336   25.9854 N   0  3  0  0  0  0  0  0  0  0  0  0
   22.1417   18.4722   26.5196 H   0  0  0  0  0  0  0  0  0  0  0  0
   21.5616   18.2203   24.9961 H   0  0  0  0  0  0  0  0  0  0  0  0
   21.0433   17.2751   26.2441 H   0  0  0  0  0  0  0  0  0  0  0  0
  1  2  1  0  0  0  0
  1  3  1  0  0  0  0
  1  4  1  0  0  0  0
  1  5  1  0  0  0  0
  5  6  1  0  0  0  0
  5  7  1  0  0  0  0
  5  8  1  0  0  0  0
  8  9  1  0  0  0  0
  8 10  1  0  0  0  0
  8 11  1  0  0  0  0
 11 12  1  0  0  0  0
 11 13  1  0  0  0  0
 11 14  1  0  0  0  0
 14 15  1  0  0  0  0
 14 16  1  0  0  0  0
 14 17  1  0  0  0  0
 17 18  1  0  0  0  0
 17 19  1  0  0  0  0
 17 20  1  0  0  0  0
 20 21  1  0  0  0  0
 20 22  1  0  0  0  0
 20 23  1  0  0  0  0
 23 24  1  0  0  0  0
 23 25  1  0  0  0  0
 23 26  1  0  0  0  0
M  END
> <VM2 Rank>
98

> <Conf_Id>
1576

> <Probability>
0.07

> <Sum Probability>
98.71

> <Delta G>
2.761

> <G>
51.022

> <E>
18.523

> <-TS>
32.499

> <U+W>
-2.939

> <U>
50.881

> <W>
-53.820

> <W(PB)>
-56.136

> <W(SA)>
2.315

> <Valence>
3.754

> <Coulomb>
46.575

> <VdW>
0.553

> <VdW6>
-7.276

> <VdW12>
7.829

> <Bond>
0.187

> <Angle>
0.957

> <Pdih>
2.610

> <Idih>
0.000

> <Tether>
0.000

$$$$
VeraChem MOL file


 26 25  0  0  0  0  0  0  0  0999 V2000     
   19.9069   18.5964   19.1923 C   0  0  0  0  0  0  0  0  0  0  0  0
   20.5949   19.3941   18.8831 H   0  0  0  0  0  0  0  0  0  0  0  0
   20.0617   17.7399   18.5234 H   0  0  0  0  0  0  0  0  0  0  0  0
   18.8797   18.9557   19.0476 H   0  0  0  0  0  0  0  0  0  0  0  0
   20.1512   18.1917   20.6615 C   0  0  0  0  0  0  0  0  0  0  0  0
   21.1747   17.8056   20.7678 H   0  0  0  0  0  0  0  0  0  0  0  0
   19.4727   17.3701   20.9306 H   0  0  0  0  0  0  0  0  0  0  0  0
   19.9396   19.3805   21.6250 C   0  0  0  0  0  0  0  0  0  0  0  0
   20.6174   20.2000   21.3486 H   0  0  0  0  0  0  0  0  0  0  0  0
   18.9158   19.7640   21.5144 H   0  0  0  0  0  0  0  0  0  0  0  0
   20.1850   18.9797   23.0973 C   0  0  0  0  0  0  0  0  0  0  0  0
   21.2119   18.6048   23.2074 H   0  0  0  0  0  0  0  0  0  0  0  0
   19.5053   18.1584   23.3559 H   0  0  0  0  0  0  0  0  0  0  0  0
   19.9591   20.1695   24.0601 C   0  0  0  0  0  0  0  0  0  0  0  0
   20.5331   21.0338   23.6983 H   0  0  0  0  0  0  0  0  0  0  0  0
   18.9025   20.4697   24.0301 H   0  0  0  0  0  0  0  0  0  0  0  0
   20.3758   19.8953   25.5278 C   0  0  0  0  0  0  0  0  0  0  0  0
   20.2474   20.8277   26.0936 H   0  0  0  0  0  0  0  0  0  0  0  0
   21.4457   19.6544   25.5831 H   0  0  0  0  0  0  0  0  0  0  0  0
   19.5502   18.8000   26.2344 C   0  0  0  0  0  0  0  0  0  0  0  0
   19.6233   18.9417   27.3161 H   0  0  0  0  0  0  0  0  0  0  0  0
   18.4978   18.8876   25.9515 H   0  0  0  0  0  0  0  0  0  0  0  0
   20.0132   17.3859   25.9424 N   0  3  0  0  0  0  0  0  0  0  0  0
   20.9819   17.2346   26.2423 H   0  0  0  0  0  0  0  0  0  0  0  0
   19.9686   17.1698   24.9428 H   0  0  0  0  0  0  0  0  0  0  0  0
   19.4380   16.6896   26.4291 H   0  0  0  0  0  0  0  0  0  0  0  0
  1  2  1  0  0  0  0
  1  3  1  0  0  0  0
  1  4  1  0  0  0  0
  1  5  1  0  0  0  0
  5  6  1  0  0  0  0
  5  7  1  0  0  0  0
  5  8  1  0  0  0  0
  8  9  1  0  0  0  0
  8 10  1  0  0  0  0
  8 11  1  0  0  0  0
 11 12  1  0  0  0  0
 11 13  1  0  0  0  0
 11 14  1  0  0  0  0
 14 15  1  0  0  0  0
 14 16  1  0  0  0  0
 14 17  1  0  0  0  0
 17 18  1  0  0  0  0
 17 19  1  0  0  0  0
 17 20  1  0  0  0  0
 20 21  1  0  0  0  0
 20 22  1  0  0  0  0
 20 23  1  0  0  0  0
 23 24  1  0  0  0  0
 23 25  1  0  0  0  0
 23 26  1  0  0  0  0
M  END
> <VM2 Rank>
99

> <Conf_Id>
1311

> <Probability>
0.07

> <Sum Probability>
98.78

> <Delta G>
2.776

> <G>
51.037

> <E>
18.537

> <-TS>
32.500

> <U+W>
-2.925

> <U>
50.881

> <W>
-53.806

> <W(PB)>
-56.131

> <W(SA)>
2.325

> <Valence>
3.754

> <Coulomb>
46.575

> <VdW>
0.553

> <VdW6>
-7.276

> <VdW12>
7.829

> <Bond>
0.187

> <Angle>
0.957

> <Pdih>
2.610

> <Idih>
0.000

> <Tether>
0.000

$$$$
VeraChem MOL file


 26 25  0  0  0  0  0  0  0  0999 V2000     
   20.5648   20.4473   20.0734 C   0  0  0  0  0  0  0  0  0  0  0  0
   21.4049   20.9007   20.6155 H   0  0  0  0  0  0  0  0  0  0  0  0
   20.8209   20.4332   19.0060 H   0  0  0  0  0  0  0  0  0  0  0  0
   19.6868   21.0939   20.2007 H   0  0  0  0  0  0  0  0  0  0  0  0
   20.2806   19.0190   20.5844 C   0  0  0  0  0  0  0  0  0  0  0  0
   21.1642   18.3879   20.4139 H   0  0  0  0  0  0  0  0  0  0  0  0
   19.4598   18.5800   20.0001 H   0  0  0  0  0  0  0  0  0  0  0  0
   19.9162   19.0110   22.0856 C   0  0  0  0  0  0  0  0  0  0  0  0
   20.7431   19.4588   22.6514 H   0  0  0  0  0  0  0  0  0  0  0  0
   19.0292   19.6381   22.2502 H   0  0  0  0  0  0  0  0  0  0  0  0
   19.6456   17.5791   22.6037 C   0  0  0  0  0  0  0  0  0  0  0  0
   20.5709   16.9893   22.5447 H   0  0  0  0  0  0  0  0  0  0  0  0
   18.9275   17.0870   21.9332 H   0  0  0  0  0  0  0  0  0  0  0  0
   19.0817   17.5111   24.0468 C   0  0  0  0  0  0  0  0  0  0  0  0
   18.1019   18.0065   24.0930 H   0  0  0  0  0  0  0  0  0  0  0  0
   18.8913   16.4540   24.2782 H   0  0  0  0  0  0  0  0  0  0  0  0
   20.0175   18.0831   25.1415 C   0  0  0  0  0  0  0  0  0  0  0  0
   21.0641   17.8536   24.9013 H   0  0  0  0  0  0  0  0  0  0  0  0
   19.7980   17.5739   26.0894 H   0  0  0  0  0  0  0  0  0  0  0  0
   19.8368   19.5980   25.3601 C   0  0  0  0  0  0  0  0  0  0  0  0
   20.0521   20.1426   24.4390 H   0  0  0  0  0  0  0  0  0  0  0  0
   18.8017   19.8055   25.6448 H   0  0  0  0  0  0  0  0  0  0  0  0
   20.7378   20.1504   26.4455 N   0  3  0  0  0  0  0  0  0  0  0  0
   20.5997   21.1581   26.5794 H   0  0  0  0  0  0  0  0  0  0  0  0
   21.7296   20.0113   26.2266 H   0  0  0  0  0  0  0  0  0  0  0  0
   20.5631   19.7028   27.3512 H   0  0  0  0  0  0  0  0  0  0  0  0
  1  2  1  0  0  0  0
  1  3  1  0  0  0  0
  1  4  1  0  0  0  0
  1  5  1  0  0  0  0
  5  6  1  0  0  0  0
  5  7  1  0  0  0  0
  5  8  1  0  0  0  0
  8  9  1  0  0  0  0
  8 10  1  0  0  0  0
  8 11  1  0  0  0  0
 11 12  1  0  0  0  0
 11 13  1  0  0  0  0
 11 14  1  0  0  0  0
 14 15  1  0  0  0  0
 14 16  1  0  0  0  0
 14 17  1  0  0  0  0
 17 18  1  0  0  0  0
 17 19  1  0  0  0  0
 17 20  1  0  0  0  0
 20 21  1  0  0  0  0
 20 22  1  0  0  0  0
 20 23  1  0  0  0  0
 23 24  1  0  0  0  0
 23 25  1  0  0  0  0
 23 26  1  0  0  0  0
M  END
> <VM2 Rank>
100

> <Conf_Id>
1233

> <Probability>
0.06

> <Sum Probability>
98.84

> <Delta G>
2.862

> <G>
51.123

> <E>
18.434

> <-TS>
32.689

> <U+W>
-3.028

> <U>
50.863

> <W>
-53.891

> <W(PB)>
-56.212

> <W(SA)>
2.321

> <Valence>
4.548

> <Coulomb>
45.757

> <VdW>
0.558

> <VdW6>
-7.490

> <VdW12>
8.048

> <Bond>
0.198

> <Angle>
1.148

> <Pdih>
3.203

> <Idih>
0.000

> <Tether>
0.000

$$$$
VeraChem MOL file


 26 25  0  0  0  0  0  0  0  0999 V2000     
   18.6693   19.0473   19.8283 C   0  0  0  0  0  0  0  0  0  0  0  0
   18.7884   20.1112   19.5852 H   0  0  0  0  0  0  0  0  0  0  0  0
   18.5602   18.4964   18.8851 H   0  0  0  0  0  0  0  0  0  0  0  0
   17.7381   18.9286   20.3975 H   0  0  0  0  0  0  0  0  0  0  0  0
   19.8799   18.5223   20.6290 C   0  0  0  0  0  0  0  0  0  0  0  0
   20.7899   18.6219   20.0207 H   0  0  0  0  0  0  0  0  0  0  0  0
   19.7476   17.4495   20.8281 H   0  0  0  0  0  0  0  0  0  0  0  0
   20.0570   19.2818   21.9624 C   0  0  0  0  0  0  0  0  0  0  0  0
   20.1895   20.3527   21.7554 H   0  0  0  0  0  0  0  0  0  0  0  0
   19.1378   19.1879   22.5516 H   0  0  0  0  0  0  0  0  0  0  0  0
   21.2750   18.7581   22.7628 C   0  0  0  0  0  0  0  0  0  0  0  0
   22.1690   18.8704   22.1338 H   0  0  0  0  0  0  0  0  0  0  0  0
   21.1728   17.6811   22.9546 H   0  0  0  0  0  0  0  0  0  0  0  0
   21.5215   19.5144   24.0945 C   0  0  0  0  0  0  0  0  0  0  0  0
   22.6013   19.5032   24.2979 H   0  0  0  0  0  0  0  0  0  0  0  0
   21.2507   20.5738   23.9867 H   0  0  0  0  0  0  0  0  0  0  0  0
   20.8092   18.9033   25.3275 C   0  0  0  0  0  0  0  0  0  0  0  0
   21.1228   19.4576   26.2221 H   0  0  0  0  0  0  0  0  0  0  0  0
   21.1458   17.8678   25.4703 H   0  0  0  0  0  0  0  0  0  0  0  0
   19.2734   18.9334   25.2376 C   0  0  0  0  0  0  0  0  0  0  0  0
   18.9346   19.9560   25.0507 H   0  0  0  0  0  0  0  0  0  0  0  0
   18.9414   18.3000   24.4114 H   0  0  0  0  0  0  0  0  0  0  0  0
   18.5956   18.4384   26.4989 N   0  3  0  0  0  0  0  0  0  0  0  0
   18.8540   17.4705   26.7169 H   0  0  0  0  0  0  0  0  0  0  0  0
   17.5733   18.4636   26.4174 H   0  0  0  0  0  0  0  0  0  0  0  0
   18.8438   19.0078   27.3146 H   0  0  0  0  0  0  0  0  0  0  0  0
  1  2  1  0  0  0  0
  1  3  1  0  0  0  0
  1  4  1  0  0  0  0
  1  5  1  0  0  0  0
  5  6  1  0  0  0  0
  5  7  1  0  0  0  0
  5  8  1  0  0  0  0
  8  9  1  0  0  0  0
  8 10  1  0  0  0  0
  8 11  1  0  0  0  0
 11 12  1  0  0  0  0
 11 13  1  0  0  0  0
 11 14  1  0  0  0  0
 14 15  1  0  0  0  0
 14 16  1  0  0  0  0
 14 17  1  0  0  0  0
 17 18  1  0  0  0  0
 17 19  1  0  0  0  0
 17 20  1  0  0  0  0
 20 21  1  0  0  0  0
 20 22  1  0  0  0  0
 20 23  1  0  0  0  0
 23 24  1  0  0  0  0
 23 25  1  0  0  0  0
 23 26  1  0  0  0  0
M  END
> <VM2 Rank>
101

> <Conf_Id>
838

> <Probability>
0.06

> <Sum Probability>
98.90

> <Delta G>
2.862

> <G>
51.123

> <E>
18.635

> <-TS>
32.488

> <U+W>
-2.827

> <U>
50.868

> <W>
-53.695

> <W(PB)>
-56.030

> <W(SA)>
2.335

> <Valence>
4.695

> <Coulomb>
45.536

> <VdW>
0.636

> <VdW6>
-7.287

> <VdW12>
7.924

> <Bond>
0.211

> <Angle>
1.115

> <Pdih>
3.370

> <Idih>
0.000

> <Tether>
0.000

$$$$
VeraChem MOL file


 26 25  0  0  0  0  0  0  0  0999 V2000     
   18.5436   19.1135   20.0060 C   0  0  0  0  0  0  0  0  0  0  0  0
   18.2880   20.1708   20.1542 H   0  0  0  0  0  0  0  0  0  0  0  0
   18.5057   18.9055   18.9288 H   0  0  0  0  0  0  0  0  0  0  0  0
   17.7724   18.5035   20.4943 H   0  0  0  0  0  0  0  0  0  0  0  0
   19.9436   18.7966   20.5732 C   0  0  0  0  0  0  0  0  0  0  0  0
   20.6959   19.3958   20.0414 H   0  0  0  0  0  0  0  0  0  0  0  0
   20.1848   17.7416   20.3812 H   0  0  0  0  0  0  0  0  0  0  0  0
   20.0241   19.0822   22.0892 C   0  0  0  0  0  0  0  0  0  0  0  0
   19.7881   20.1389   22.2756 H   0  0  0  0  0  0  0  0  0  0  0  0
   19.2621   18.4815   22.6019 H   0  0  0  0  0  0  0  0  0  0  0  0
   21.4216   18.7510   22.6630 C   0  0  0  0  0  0  0  0  0  0  0  0
   22.1865   19.2377   22.0422 H   0  0  0  0  0  0  0  0  0  0  0  0
   21.6033   17.6706   22.5792 H   0  0  0  0  0  0  0  0  0  0  0  0
   21.6380   19.1980   24.1322 C   0  0  0  0  0  0  0  0  0  0  0  0
   22.6731   18.9496   24.4047 H   0  0  0  0  0  0  0  0  0  0  0  0
   21.5650   20.2918   24.2088 H   0  0  0  0  0  0  0  0  0  0  0  0
   20.6946   18.5299   25.1641 C   0  0  0  0  0  0  0  0  0  0  0  0
   21.2043   18.5018   26.1364 H   0  0  0  0  0  0  0  0  0  0  0  0
   20.5060   17.4854   24.8825 H   0  0  0  0  0  0  0  0  0  0  0  0
   19.3635   19.2858   25.3443 C   0  0  0  0  0  0  0  0  0  0  0  0
   19.5657   20.3095   25.6705 H   0  0  0  0  0  0  0  0  0  0  0  0
   18.8217   19.3309   24.3979 H   0  0  0  0  0  0  0  0  0  0  0  0
   18.4520   18.6421   26.3690 N   0  3  0  0  0  0  0  0  0  0  0  0
   17.5743   19.1617   26.4782 H   0  0  0  0  0  0  0  0  0  0  0  0
   18.8896   18.5982   27.2952 H   0  0  0  0  0  0  0  0  0  0  0  0
   18.2010   17.6829   26.1083 H   0  0  0  0  0  0  0  0  0  0  0  0
  1  2  1  0  0  0  0
  1  3  1  0  0  0  0
  1  4  1  0  0  0  0
  1  5  1  0  0  0  0
  5  6  1  0  0  0  0
  5  7  1  0  0  0  0
  5  8  1  0  0  0  0
  8  9  1  0  0  0  0
  8 10  1  0  0  0  0
  8 11  1  0  0  0  0
 11 12  1  0  0  0  0
 11 13  1  0  0  0  0
 11 14  1  0  0  0  0
 14 15  1  0  0  0  0
 14 16  1  0  0  0  0
 14 17  1  0  0  0  0
 17 18  1  0  0  0  0
 17 19  1  0  0  0  0
 17 20  1  0  0  0  0
 20 21  1  0  0  0  0
 20 22  1  0  0  0  0
 20 23  1  0  0  0  0
 23 24  1  0  0  0  0
 23 25  1  0  0  0  0
 23 26  1  0  0  0  0
M  END
> <VM2 Rank>
102

> <Conf_Id>
1058

> <Probability>
0.06

> <Sum Probability>
98.96

> <Delta G>
2.866

> <G>
51.127

> <E>
18.438

> <-TS>
32.690

> <U+W>
-3.024

> <U>
50.863

> <W>
-53.887

> <W(PB)>
-56.205

> <W(SA)>
2.318

> <Valence>
4.548

> <Coulomb>
45.757

> <VdW>
0.558

> <VdW6>
-7.490

> <VdW12>
8.048

> <Bond>
0.198

> <Angle>
1.147

> <Pdih>
3.203

> <Idih>
0.000

> <Tether>
0.000

$$$$
VeraChem MOL file


 26 25  0  0  0  0  0  0  0  0999 V2000     
   19.1980   20.1317   20.0005 C   0  0  0  0  0  0  0  0  0  0  0  0
   19.5626   21.1026   20.3605 H   0  0  0  0  0  0  0  0  0  0  0  0
   19.2668   20.1312   18.9049 H   0  0  0  0  0  0  0  0  0  0  0  0
   18.1379   20.0426   20.2716 H   0  0  0  0  0  0  0  0  0  0  0  0
   20.0229   18.9725   20.5987 C   0  0  0  0  0  0  0  0  0  0  0  0
   21.0714   19.0703   20.2840 H   0  0  0  0  0  0  0  0  0  0  0  0
   19.6575   18.0187   20.1929 H   0  0  0  0  0  0  0  0  0  0  0  0
   19.9415   18.9498   22.1412 C   0  0  0  0  0  0  0  0  0  0  0  0
   20.3031   19.9115   22.5264 H   0  0  0  0  0  0  0  0  0  0  0  0
   18.8926   18.8458   22.4510 H   0  0  0  0  0  0  0  0  0  0  0  0
   20.7807   17.7990   22.7440 C   0  0  0  0  0  0  0  0  0  0  0  0
   21.8454   17.9793   22.5412 H   0  0  0  0  0  0  0  0  0  0  0  0
   20.5264   16.8639   22.2261 H   0  0  0  0  0  0  0  0  0  0  0  0
   20.5745   17.5766   24.2648 C   0  0  0  0  0  0  0  0  0  0  0  0
   19.5348   17.2862   24.4634 H   0  0  0  0  0  0  0  0  0  0  0  0
   21.1813   16.7074   24.5542 H   0  0  0  0  0  0  0  0  0  0  0  0
   20.9916   18.7698   25.1658 C   0  0  0  0  0  0  0  0  0  0  0  0
   21.9019   19.2347   24.7645 H   0  0  0  0  0  0  0  0  0  0  0  0
   21.2626   18.3875   26.1590 H   0  0  0  0  0  0  0  0  0  0  0  0
   19.9028   19.8483   25.3493 C   0  0  0  0  0  0  0  0  0  0  0  0
   20.3140   20.6782   25.9304 H   0  0  0  0  0  0  0  0  0  0  0  0
   19.5868   20.2394   24.3808 H   0  0  0  0  0  0  0  0  0  0  0  0
   18.6689   19.3513   26.0767 N   0  3  0  0  0  0  0  0  0  0  0  0
   18.8955   18.9971   27.0116 H   0  0  0  0  0  0  0  0  0  0  0  0
   18.2087   18.5903   25.5679 H   0  0  0  0  0  0  0  0  0  0  0  0
   17.9734   20.0952   26.1990 H   0  0  0  0  0  0  0  0  0  0  0  0
  1  2  1  0  0  0  0
  1  3  1  0  0  0  0
  1  4  1  0  0  0  0
  1  5  1  0  0  0  0
  5  6  1  0  0  0  0
  5  7  1  0  0  0  0
  5  8  1  0  0  0  0
  8  9  1  0  0  0  0
  8 10  1  0  0  0  0
  8 11  1  0  0  0  0
 11 12  1  0  0  0  0
 11 13  1  0  0  0  0
 11 14  1  0  0  0  0
 14 15  1  0  0  0  0
 14 16  1  0  0  0  0
 14 17  1  0  0  0  0
 17 18  1  0  0  0  0
 17 19  1  0  0  0  0
 17 20  1  0  0  0  0
 20 21  1  0  0  0  0
 20 22  1  0  0  0  0
 20 23  1  0  0  0  0
 23 24  1  0  0  0  0
 23 25  1  0  0  0  0
 23 26  1  0  0  0  0
M  END
> <VM2 Rank>
103

> <Conf_Id>
1120

> <Probability>
0.03

> <Sum Probability>
98.99

> <Delta G>
3.276

> <G>
51.538

> <E>
18.787

> <-TS>
32.750

> <U+W>
-2.675

> <U>
51.397

> <W>
-54.072

> <W(PB)>
-56.387

> <W(SA)>
2.315

> <Valence>
4.709

> <Coulomb>
46.079

> <VdW>
0.609

> <VdW6>
-8.057

> <VdW12>
8.666

> <Bond>
0.231

> <Angle>
1.340

> <Pdih>
3.138

> <Idih>
0.000

> <Tether>
0.000

$$$$
VeraChem MOL file


 26 25  0  0  0  0  0  0  0  0999 V2000     
   19.8408   20.4592   20.4513 C   0  0  0  0  0  0  0  0  0  0  0  0
   18.8716   20.4149   19.9378 H   0  0  0  0  0  0  0  0  0  0  0  0
   19.6634   20.8010   21.4768 H   0  0  0  0  0  0  0  0  0  0  0  0
   20.4494   21.2213   19.9476 H   0  0  0  0  0  0  0  0  0  0  0  0
   20.5506   19.0858   20.4090 C   0  0  0  0  0  0  0  0  0  0  0  0
   21.5490   19.1573   20.8625 H   0  0  0  0  0  0  0  0  0  0  0  0
   20.7160   18.8231   19.3547 H   0  0  0  0  0  0  0  0  0  0  0  0
   19.7347   17.9498   21.0783 C   0  0  0  0  0  0  0  0  0  0  0  0
   18.6584   18.1527   20.9911 H   0  0  0  0  0  0  0  0  0  0  0  0
   19.9077   17.0250   20.5107 H   0  0  0  0  0  0  0  0  0  0  0  0
   20.1055   17.6648   22.5567 C   0  0  0  0  0  0  0  0  0  0  0  0
   21.1592   17.3593   22.6159 H   0  0  0  0  0  0  0  0  0  0  0  0
   19.5175   16.8013   22.8973 H   0  0  0  0  0  0  0  0  0  0  0  0
   19.8595   18.8514   23.5171 C   0  0  0  0  0  0  0  0  0  0  0  0
   20.5382   19.6767   23.2653 H   0  0  0  0  0  0  0  0  0  0  0  0
   18.8333   19.2230   23.3894 H   0  0  0  0  0  0  0  0  0  0  0  0
   20.0835   18.4527   24.9924 C   0  0  0  0  0  0  0  0  0  0  0  0
   21.1079   18.0792   25.1229 H   0  0  0  0  0  0  0  0  0  0  0  0
   19.4043   17.6329   25.2620 H   0  0  0  0  0  0  0  0  0  0  0  0
   19.8481   19.6431   25.9388 C   0  0  0  0  0  0  0  0  0  0  0  0
   20.5337   20.4563   25.6851 H   0  0  0  0  0  0  0  0  0  0  0  0
   18.8239   20.0080   25.8237 H   0  0  0  0  0  0  0  0  0  0  0  0
   20.0584   19.2921   27.3975 N   0  3  0  0  0  0  0  0  0  0  0  0
   21.0136   18.9666   27.5785 H   0  0  0  0  0  0  0  0  0  0  0  0
   19.4228   18.5497   27.7074 H   0  0  0  0  0  0  0  0  0  0  0  0
   19.8967   20.0986   28.0106 H   0  0  0  0  0  0  0  0  0  0  0  0
  1  2  1  0  0  0  0
  1  3  1  0  0  0  0
  1  4  1  0  0  0  0
  1  5  1  0  0  0  0
  5  6  1  0  0  0  0
  5  7  1  0  0  0  0
  5  8  1  0  0  0  0
  8  9  1  0  0  0  0
  8 10  1  0  0  0  0
  8 11  1  0  0  0  0
 11 12  1  0  0  0  0
 11 13  1  0  0  0  0
 11 14  1  0  0  0  0
 14 15  1  0  0  0  0
 14 16  1  0  0  0  0
 14 17  1  0  0  0  0
 17 18  1  0  0  0  0
 17 19  1  0  0  0  0
 17 20  1  0  0  0  0
 20 21  1  0  0  0  0
 20 22  1  0  0  0  0
 20 23  1  0  0  0  0
 23 24  1  0  0  0  0
 23 25  1  0  0  0  0
 23 26  1  0  0  0  0
M  END
> <VM2 Rank>
104

> <Conf_Id>
727

> <Probability>
0.03

> <Sum Probability>
99.02

> <Delta G>
3.307

> <G>
51.568

> <E>
18.875

> <-TS>
32.693

> <U+W>
-2.586

> <U>
50.680

> <W>
-53.266

> <W(PB)>
-55.566

> <W(SA)>
2.299

> <Valence>
5.154

> <Coulomb>
44.813

> <VdW>
0.713

> <VdW6>
-7.314

> <VdW12>
8.027

> <Bond>
0.213

> <Angle>
1.193

> <Pdih>
3.747

> <Idih>
0.000

> <Tether>
0.000

$$$$
VeraChem MOL file


 26 25  0  0  0  0  0  0  0  0999 V2000     
   18.7993   19.7721   20.4165 C   0  0  0  0  0  0  0  0  0  0  0  0
   19.2443   20.6607   19.9501 H   0  0  0  0  0  0  0  0  0  0  0  0
   17.8838   19.5287   19.8619 H   0  0  0  0  0  0  0  0  0  0  0  0
   18.5073   20.0384   21.4382 H   0  0  0  0  0  0  0  0  0  0  0  0
   19.7844   18.5803   20.3834 C   0  0  0  0  0  0  0  0  0  0  0  0
   20.0098   18.3572   19.3311 H   0  0  0  0  0  0  0  0  0  0  0  0
   19.3058   17.6774   20.7876 H   0  0  0  0  0  0  0  0  0  0  0  0
   21.1169   18.8618   21.1245 C   0  0  0  0  0  0  0  0  0  0  0  0
   21.9250   18.3559   20.5781 H   0  0  0  0  0  0  0  0  0  0  0  0
   21.3570   19.9331   21.0812 H   0  0  0  0  0  0  0  0  0  0  0  0
   21.1645   18.3635   22.5921 C   0  0  0  0  0  0  0  0  0  0  0  0
   22.1726   18.5530   22.9860 H   0  0  0  0  0  0  0  0  0  0  0  0
   21.0290   17.2733   22.6116 H   0  0  0  0  0  0  0  0  0  0  0  0
   20.1263   19.0275   23.5260 C   0  0  0  0  0  0  0  0  0  0  0  0
   20.1936   20.1204   23.4348 H   0  0  0  0  0  0  0  0  0  0  0  0
   19.1135   18.7369   23.2177 H   0  0  0  0  0  0  0  0  0  0  0  0
   20.3360   18.6193   25.0008 C   0  0  0  0  0  0  0  0  0  0  0  0
   21.3431   18.9119   25.3268 H   0  0  0  0  0  0  0  0  0  0  0  0
   20.2709   17.5271   25.0949 H   0  0  0  0  0  0  0  0  0  0  0  0
   19.2908   19.2755   25.9201 C   0  0  0  0  0  0  0  0  0  0  0  0
   19.3630   20.3636   25.8418 H   0  0  0  0  0  0  0  0  0  0  0  0
   18.2866   18.9740   25.6100 H   0  0  0  0  0  0  0  0  0  0  0  0
   19.4627   18.8991   27.3776 N   0  3  0  0  0  0  0  0  0  0  0  0
   20.3798   19.1809   27.7394 H   0  0  0  0  0  0  0  0  0  0  0  0
   19.3783   17.8878   27.5238 H   0  0  0  0  0  0  0  0  0  0  0  0
   18.7568   19.3467   27.9725 H   0  0  0  0  0  0  0  0  0  0  0  0
  1  2  1  0  0  0  0
  1  3  1  0  0  0  0
  1  4  1  0  0  0  0
  1  5  1  0  0  0  0
  5  6  1  0  0  0  0
  5  7  1  0  0  0  0
  5  8  1  0  0  0  0
  8  9  1  0  0  0  0
  8 10  1  0  0  0  0
  8 11  1  0  0  0  0
 11 12  1  0  0  0  0
 11 13  1  0  0  0  0
 11 14  1  0  0  0  0
 14 15  1  0  0  0  0
 14 16  1  0  0  0  0
 14 17  1  0  0  0  0
 17 18  1  0  0  0  0
 17 19  1  0  0  0  0
 17 20  1  0  0  0  0
 20 21  1  0  0  0  0
 20 22  1  0  0  0  0
 20 23  1  0  0  0  0
 23 24  1  0  0  0  0
 23 25  1  0  0  0  0
 23 26  1  0  0  0  0
M  END
> <VM2 Rank>
105

> <Conf_Id>
935

> <Probability>
0.03

> <Sum Probability>
99.04

> <Delta G>
3.308

> <G>
51.569

> <E>
18.876

> <-TS>
32.693

> <U+W>
-2.586

> <U>
50.680

> <W>
-53.266

> <W(PB)>
-55.569

> <W(SA)>
2.303

> <Valence>
5.154

> <Coulomb>
44.813

> <VdW>
0.713

> <VdW6>
-7.314

> <VdW12>
8.027

> <Bond>
0.213

> <Angle>
1.193

> <Pdih>
3.747

> <Idih>
0.000

> <Tether>
0.000

$$$$
VeraChem MOL file


 26 25  0  0  0  0  0  0  0  0999 V2000     
   18.5979   19.0206   20.5788 C   0  0  0  0  0  0  0  0  0  0  0  0
   18.3379   18.3741   21.4260 H   0  0  0  0  0  0  0  0  0  0  0  0
   18.4177   20.0646   20.8660 H   0  0  0  0  0  0  0  0  0  0  0  0
   17.9126   18.7750   19.7573 H   0  0  0  0  0  0  0  0  0  0  0  0
   20.0633   18.8079   20.1404 C   0  0  0  0  0  0  0  0  0  0  0  0
   20.2281   19.3403   19.1932 H   0  0  0  0  0  0  0  0  0  0  0  0
   20.2276   17.7432   19.9233 H   0  0  0  0  0  0  0  0  0  0  0  0
   21.1154   19.2970   21.1683 C   0  0  0  0  0  0  0  0  0  0  0  0
   22.1082   19.1398   20.7244 H   0  0  0  0  0  0  0  0  0  0  0  0
   21.0252   20.3822   21.3138 H   0  0  0  0  0  0  0  0  0  0  0  0
   21.0766   18.5649   22.5352 C   0  0  0  0  0  0  0  0  0  0  0  0
   22.1062   18.4690   22.9068 H   0  0  0  0  0  0  0  0  0  0  0  0
   20.7051   17.5395   22.4024 H   0  0  0  0  0  0  0  0  0  0  0  0
   20.2439   19.3075   23.6089 C   0  0  0  0  0  0  0  0  0  0  0  0
   20.6657   20.3096   23.7683 H   0  0  0  0  0  0  0  0  0  0  0  0
   19.2141   19.4542   23.2619 H   0  0  0  0  0  0  0  0  0  0  0  0
   20.2243   18.5418   24.9500 C   0  0  0  0  0  0  0  0  0  0  0  0
   21.2516   18.4044   25.3131 H   0  0  0  0  0  0  0  0  0  0  0  0
   19.7994   17.5406   24.7976 H   0  0  0  0  0  0  0  0  0  0  0  0
   19.4015   19.2900   26.0137 C   0  0  0  0  0  0  0  0  0  0  0  0
   19.8305   20.2818   26.1804 H   0  0  0  0  0  0  0  0  0  0  0  0
   18.3732   19.4142   25.6636 H   0  0  0  0  0  0  0  0  0  0  0  0
   19.3582   18.5694   27.3457 N   0  3  0  0  0  0  0  0  0  0  0  0
   18.8055   19.0845   28.0397 H   0  0  0  0  0  0  0  0  0  0  0  0
   20.2949   18.4446   27.7434 H   0  0  0  0  0  0  0  0  0  0  0  0
   18.9390   17.6374   27.2626 H   0  0  0  0  0  0  0  0  0  0  0  0
  1  2  1  0  0  0  0
  1  3  1  0  0  0  0
  1  4  1  0  0  0  0
  1  5  1  0  0  0  0
  5  6  1  0  0  0  0
  5  7  1  0  0  0  0
  5  8  1  0  0  0  0
  8  9  1  0  0  0  0
  8 10  1  0  0  0  0
  8 11  1  0  0  0  0
 11 12  1  0  0  0  0
 11 13  1  0  0  0  0
 11 14  1  0  0  0  0
 14 15  1  0  0  0  0
 14 16  1  0  0  0  0
 14 17  1  0  0  0  0
 17 18  1  0  0  0  0
 17 19  1  0  0  0  0
 17 20  1  0  0  0  0
 20 21  1  0  0  0  0
 20 22  1  0  0  0  0
 20 23  1  0  0  0  0
 23 24  1  0  0  0  0
 23 25  1  0  0  0  0
 23 26  1  0  0  0  0
M  END
> <VM2 Rank>
106

> <Conf_Id>
1074

> <Probability>
0.03

> <Sum Probability>
99.07

> <Delta G>
3.310

> <G>
51.571

> <E>
18.868

> <-TS>
32.703

> <U+W>
-2.594

> <U>
50.662

> <W>
-53.256

> <W(PB)>
-55.567

> <W(SA)>
2.312

> <Valence>
5.128

> <Coulomb>
44.842

> <VdW>
0.692

> <VdW6>
-7.327

> <VdW12>
8.019

> <Bond>
0.214

> <Angle>
1.153

> <Pdih>
3.761

> <Idih>
0.000

> <Tether>
0.000

$$$$
VeraChem MOL file


 26 25  0  0  0  0  0  0  0  0999 V2000     
   19.3728   20.2472   20.0064 C   0  0  0  0  0  0  0  0  0  0  0  0
   19.8577   21.1777   20.3292 H   0  0  0  0  0  0  0  0  0  0  0  0
   19.3972   20.2174   18.9093 H   0  0  0  0  0  0  0  0  0  0  0  0
   18.3210   20.2833   20.3191 H   0  0  0  0  0  0  0  0  0  0  0  0
   20.0866   19.0146   20.6009 C   0  0  0  0  0  0  0  0  0  0  0  0
   21.1250   18.9874   20.2420 H   0  0  0  0  0  0  0  0  0  0  0  0
   19.6003   18.0995   20.2349 H   0  0  0  0  0  0  0  0  0  0  0  0
   20.0676   19.0330   22.1455 C   0  0  0  0  0  0  0  0  0  0  0  0
   20.5599   19.9463   22.5068 H   0  0  0  0  0  0  0  0  0  0  0  0
   19.0244   19.0674   22.4837 H   0  0  0  0  0  0  0  0  0  0  0  0
   20.7680   17.7907   22.7436 C   0  0  0  0  0  0  0  0  0  0  0  0
   21.7509   17.6721   22.2669 H   0  0  0  0  0  0  0  0  0  0  0  0
   20.1944   16.8895   22.4863 H   0  0  0  0  0  0  0  0  0  0  0  0
   20.9828   17.8460   24.2785 C   0  0  0  0  0  0  0  0  0  0  0  0
   21.5304   16.9377   24.5658 H   0  0  0  0  0  0  0  0  0  0  0  0
   21.6477   18.6811   24.5338 H   0  0  0  0  0  0  0  0  0  0  0  0
   19.6812   17.9043   25.1224 C   0  0  0  0  0  0  0  0  0  0  0  0
   19.8806   17.4749   26.1132 H   0  0  0  0  0  0  0  0  0  0  0  0
   18.9161   17.2628   24.6655 H   0  0  0  0  0  0  0  0  0  0  0  0
   19.1078   19.3233   25.3228 C   0  0  0  0  0  0  0  0  0  0  0  0
   18.9167   19.7968   24.3585 H   0  0  0  0  0  0  0  0  0  0  0  0
   18.1574   19.2539   25.8589 H   0  0  0  0  0  0  0  0  0  0  0  0
   20.0143   20.2399   26.1209 N   0  3  0  0  0  0  0  0  0  0  0  0
   19.5972   21.1678   26.2524 H   0  0  0  0  0  0  0  0  0  0  0  0
   20.9171   20.3792   25.6572 H   0  0  0  0  0  0  0  0  0  0  0  0
   20.2081   19.8640   27.0548 H   0  0  0  0  0  0  0  0  0  0  0  0
  1  2  1  0  0  0  0
  1  3  1  0  0  0  0
  1  4  1  0  0  0  0
  1  5  1  0  0  0  0
  5  6  1  0  0  0  0
  5  7  1  0  0  0  0
  5  8  1  0  0  0  0
  8  9  1  0  0  0  0
  8 10  1  0  0  0  0
  8 11  1  0  0  0  0
 11 12  1  0  0  0  0
 11 13  1  0  0  0  0
 11 14  1  0  0  0  0
 14 15  1  0  0  0  0
 14 16  1  0  0  0  0
 14 17  1  0  0  0  0
 17 18  1  0  0  0  0
 17 19  1  0  0  0  0
 17 20  1  0  0  0  0
 20 21  1  0  0  0  0
 20 22  1  0  0  0  0
 20 23  1  0  0  0  0
 23 24  1  0  0  0  0
 23 25  1  0  0  0  0
 23 26  1  0  0  0  0
M  END
> <VM2 Rank>
107

> <Conf_Id>
1621

> <Probability>
0.03

> <Sum Probability>
99.10

> <Delta G>
3.319

> <G>
51.580

> <E>
18.830

> <-TS>
32.749

> <U+W>
-2.632

> <U>
51.398

> <W>
-54.029

> <W(PB)>
-56.347

> <W(SA)>
2.318

> <Valence>
4.709

> <Coulomb>
46.080

> <VdW>
0.609

> <VdW6>
-8.057

> <VdW12>
8.666

> <Bond>
0.231

> <Angle>
1.341

> <Pdih>
3.137

> <Idih>
0.000

> <Tether>
0.000

$$$$
VeraChem MOL file


 26 25  0  0  0  0  0  0  0  0999 V2000     
   18.8513   18.1912   20.3882 C   0  0  0  0  0  0  0  0  0  0  0  0
   17.9679   18.2238   21.0389 H   0  0  0  0  0  0  0  0  0  0  0  0
   18.5020   18.0842   19.3531 H   0  0  0  0  0  0  0  0  0  0  0  0
   19.4281   17.2916   20.6359 H   0  0  0  0  0  0  0  0  0  0  0  0
   19.7024   19.4722   20.5418 C   0  0  0  0  0  0  0  0  0  0  0  0
   19.1230   20.3285   20.1692 H   0  0  0  0  0  0  0  0  0  0  0  0
   20.5939   19.4032   19.9030 H   0  0  0  0  0  0  0  0  0  0  0  0
   20.1243   19.7564   22.0034 C   0  0  0  0  0  0  0  0  0  0  0  0
   20.6182   20.7373   22.0364 H   0  0  0  0  0  0  0  0  0  0  0  0
   19.2245   19.8463   22.6223 H   0  0  0  0  0  0  0  0  0  0  0  0
   21.0880   18.6878   22.5819 C   0  0  0  0  0  0  0  0  0  0  0  0
   21.9445   18.5978   21.8995 H   0  0  0  0  0  0  0  0  0  0  0  0
   20.6092   17.7001   22.6010 H   0  0  0  0  0  0  0  0  0  0  0  0
   21.6288   19.0323   23.9945 C   0  0  0  0  0  0  0  0  0  0  0  0
   22.6297   18.5896   24.0931 H   0  0  0  0  0  0  0  0  0  0  0  0
   21.7732   20.1169   24.0938 H   0  0  0  0  0  0  0  0  0  0  0  0
   20.7666   18.4987   25.1663 C   0  0  0  0  0  0  0  0  0  0  0  0
   21.2839   18.7204   26.1092 H   0  0  0  0  0  0  0  0  0  0  0  0
   20.6951   17.4048   25.1013 H   0  0  0  0  0  0  0  0  0  0  0  0
   19.3515   19.1003   25.2226 C   0  0  0  0  0  0  0  0  0  0  0  0
   19.4147   20.1917   25.2370 H   0  0  0  0  0  0  0  0  0  0  0  0
   18.7875   18.7954   24.3379 H   0  0  0  0  0  0  0  0  0  0  0  0
   18.5681   18.6601   26.4423 N   0  3  0  0  0  0  0  0  0  0  0  0
   18.4516   17.6420   26.4746 H   0  0  0  0  0  0  0  0  0  0  0  0
   17.6275   19.0691   26.4593 H   0  0  0  0  0  0  0  0  0  0  0  0
   19.0302   18.9387   27.3141 H   0  0  0  0  0  0  0  0  0  0  0  0
  1  2  1  0  0  0  0
  1  3  1  0  0  0  0
  1  4  1  0  0  0  0
  1  5  1  0  0  0  0
  5  6  1  0  0  0  0
  5  7  1  0  0  0  0
  5  8  1  0  0  0  0
  8  9  1  0  0  0  0
  8 10  1  0  0  0  0
  8 11  1  0  0  0  0
 11 12  1  0  0  0  0
 11 13  1  0  0  0  0
 11 14  1  0  0  0  0
 14 15  1  0  0  0  0
 14 16  1  0  0  0  0
 14 17  1  0  0  0  0
 17 18  1  0  0  0  0
 17 19  1  0  0  0  0
 17 20  1  0  0  0  0
 20 21  1  0  0  0  0
 20 22  1  0  0  0  0
 20 23  1  0  0  0  0
 23 24  1  0  0  0  0
 23 25  1  0  0  0  0
 23 26  1  0  0  0  0
M  END
> <VM2 Rank>
108

> <Conf_Id>
448

> <Probability>
0.03

> <Sum Probability>
99.13

> <Delta G>
3.336

> <G>
51.597

> <E>
19.068

> <-TS>
32.529

> <U+W>
-2.394

> <U>
51.488

> <W>
-53.882

> <W(PB)>
-56.168

> <W(SA)>
2.286

> <Valence>
5.168

> <Coulomb>
45.587

> <VdW>
0.733

> <VdW6>
-7.959

> <VdW12>
8.692

> <Bond>
0.251

> <Angle>
1.359

> <Pdih>
3.559

> <Idih>
0.000

> <Tether>
0.000

$$$$
VeraChem MOL file


 26 25  0  0  0  0  0  0  0  0999 V2000     
   19.6945   18.7533   19.3396 C   0  0  0  0  0  0  0  0  0  0  0  0
   20.2781   17.8782   19.0252 H   0  0  0  0  0  0  0  0  0  0  0  0
   18.7295   18.7197   18.8174 H   0  0  0  0  0  0  0  0  0  0  0  0
   20.2257   19.6553   19.0088 H   0  0  0  0  0  0  0  0  0  0  0  0
   19.4865   18.7619   20.8689 C   0  0  0  0  0  0  0  0  0  0  0  0
   18.9274   17.8636   21.1654 H   0  0  0  0  0  0  0  0  0  0  0  0
   18.8665   19.6270   21.1396 H   0  0  0  0  0  0  0  0  0  0  0  0
   20.8339   18.8130   21.6273 C   0  0  0  0  0  0  0  0  0  0  0  0
   21.4668   17.9811   21.2885 H   0  0  0  0  0  0  0  0  0  0  0  0
   21.3714   19.7348   21.3654 H   0  0  0  0  0  0  0  0  0  0  0  0
   20.6808   18.7200   23.1653 C   0  0  0  0  0  0  0  0  0  0  0  0
   21.6834   18.6649   23.6114 H   0  0  0  0  0  0  0  0  0  0  0  0
   20.1686   17.7819   23.4126 H   0  0  0  0  0  0  0  0  0  0  0  0
   19.9154   19.9190   23.7788 C   0  0  0  0  0  0  0  0  0  0  0  0
   20.3213   20.8508   23.3614 H   0  0  0  0  0  0  0  0  0  0  0  0
   18.8598   19.8810   23.4785 H   0  0  0  0  0  0  0  0  0  0  0  0
   19.9985   20.0063   25.3243 C   0  0  0  0  0  0  0  0  0  0  0  0
   19.5054   20.9367   25.6357 H   0  0  0  0  0  0  0  0  0  0  0  0
   21.0441   20.0970   25.6472 H   0  0  0  0  0  0  0  0  0  0  0  0
   19.3141   18.8408   26.0683 C   0  0  0  0  0  0  0  0  0  0  0  0
   19.0885   19.1553   27.0909 H   0  0  0  0  0  0  0  0  0  0  0  0
   18.3713   18.5887   25.5756 H   0  0  0  0  0  0  0  0  0  0  0  0
   20.1571   17.5846   26.1685 N   0  3  0  0  0  0  0  0  0  0  0  0
   21.0337   17.7553   26.6720 H   0  0  0  0  0  0  0  0  0  0  0  0
   20.4047   17.2186   25.2451 H   0  0  0  0  0  0  0  0  0  0  0  0
   19.6659   16.8362   26.6695 H   0  0  0  0  0  0  0  0  0  0  0  0
  1  2  1  0  0  0  0
  1  3  1  0  0  0  0
  1  4  1  0  0  0  0
  1  5  1  0  0  0  0
  5  6  1  0  0  0  0
  5  7  1  0  0  0  0
  5  8  1  0  0  0  0
  8  9  1  0  0  0  0
  8 10  1  0  0  0  0
  8 11  1  0  0  0  0
 11 12  1  0  0  0  0
 11 13  1  0  0  0  0
 11 14  1  0  0  0  0
 14 15  1  0  0  0  0
 14 16  1  0  0  0  0
 14 17  1  0  0  0  0
 17 18  1  0  0  0  0
 17 19  1  0  0  0  0
 17 20  1  0  0  0  0
 20 21  1  0  0  0  0
 20 22  1  0  0  0  0
 20 23  1  0  0  0  0
 23 24  1  0  0  0  0
 23 25  1  0  0  0  0
 23 26  1  0  0  0  0
M  END
> <VM2 Rank>
109

> <Conf_Id>
1353

> <Probability>
0.03

> <Sum Probability>
99.15

> <Delta G>
3.346

> <G>
51.607

> <E>
18.965

> <-TS>
32.642

> <U+W>
-2.497

> <U>
51.400

> <W>
-53.897

> <W(PB)>
-56.162

> <W(SA)>
2.265

> <Valence>
4.232

> <Coulomb>
46.515

> <VdW>
0.653

> <VdW6>
-7.962

> <VdW12>
8.615

> <Bond>
0.225

> <Angle>
1.150

> <Pdih>
2.857

> <Idih>
0.000

> <Tether>
0.000

$$$$
VeraChem MOL file


 26 25  0  0  0  0  0  0  0  0999 V2000     
   21.0867   18.6123   20.0374 C   0  0  0  0  0  0  0  0  0  0  0  0
   22.0171   18.4005   20.5800 H   0  0  0  0  0  0  0  0  0  0  0  0
   20.4803   17.6980   20.0245 H   0  0  0  0  0  0  0  0  0  0  0  0
   21.3502   18.8486   18.9983 H   0  0  0  0  0  0  0  0  0  0  0  0
   20.3224   19.7901   20.6833 C   0  0  0  0  0  0  0  0  0  0  0  0
   19.3860   19.9672   20.1361 H   0  0  0  0  0  0  0  0  0  0  0  0
   20.9208   20.7053   20.5724 H   0  0  0  0  0  0  0  0  0  0  0  0
   20.0185   19.5730   22.1852 C   0  0  0  0  0  0  0  0  0  0  0  0
   20.9660   19.4307   22.7205 H   0  0  0  0  0  0  0  0  0  0  0  0
   19.5600   20.4878   22.5853 H   0  0  0  0  0  0  0  0  0  0  0  0
   19.0786   18.3716   22.4518 C   0  0  0  0  0  0  0  0  0  0  0  0
   19.6003   17.4342   22.2172 H   0  0  0  0  0  0  0  0  0  0  0  0
   18.2248   18.4280   21.7626 H   0  0  0  0  0  0  0  0  0  0  0  0
   18.5267   18.2962   23.8991 C   0  0  0  0  0  0  0  0  0  0  0  0
   17.9207   19.1859   24.1198 H   0  0  0  0  0  0  0  0  0  0  0  0
   17.8329   17.4454   23.9447 H   0  0  0  0  0  0  0  0  0  0  0  0
   19.6016   18.0997   24.9978 C   0  0  0  0  0  0  0  0  0  0  0  0
   20.3926   17.4293   24.6362 H   0  0  0  0  0  0  0  0  0  0  0  0
   19.1358   17.5956   25.8551 H   0  0  0  0  0  0  0  0  0  0  0  0
   20.2092   19.4256   25.4955 C   0  0  0  0  0  0  0  0  0  0  0  0
   20.6954   19.9524   24.6725 H   0  0  0  0  0  0  0  0  0  0  0  0
   19.4158   20.0664   25.8896 H   0  0  0  0  0  0  0  0  0  0  0  0
   21.2373   19.2305   26.5910 N   0  3  0  0  0  0  0  0  0  0  0  0
   20.8361   18.7676   27.4131 H   0  0  0  0  0  0  0  0  0  0  0  0
   21.6266   20.1236   26.9119 H   0  0  0  0  0  0  0  0  0  0  0  0
   22.0264   18.6563   26.2767 H   0  0  0  0  0  0  0  0  0  0  0  0
  1  2  1  0  0  0  0
  1  3  1  0  0  0  0
  1  4  1  0  0  0  0
  1  5  1  0  0  0  0
  5  6  1  0  0  0  0
  5  7  1  0  0  0  0
  5  8  1  0  0  0  0
  8  9  1  0  0  0  0
  8 10  1  0  0  0  0
  8 11  1  0  0  0  0
 11 12  1  0  0  0  0
 11 13  1  0  0  0  0
 11 14  1  0  0  0  0
 14 15  1  0  0  0  0
 14 16  1  0  0  0  0
 14 17  1  0  0  0  0
 17 18  1  0  0  0  0
 17 19  1  0  0  0  0
 17 20  1  0  0  0  0
 20 21  1  0  0  0  0
 20 22  1  0  0  0  0
 20 23  1  0  0  0  0
 23 24  1  0  0  0  0
 23 25  1  0  0  0  0
 23 26  1  0  0  0  0
M  END
> <VM2 Rank>
110

> <Conf_Id>
270

> <Probability>
0.03

> <Sum Probability>
99.18

> <Delta G>
3.349

> <G>
51.610

> <E>
18.795

> <-TS>
32.815

> <U+W>
-2.667

> <U>
51.327

> <W>
-53.994

> <W(PB)>
-56.277

> <W(SA)>
2.284

> <Valence>
4.992

> <Coulomb>
45.664

> <VdW>
0.672

> <VdW6>
-8.113

> <VdW12>
8.785

> <Bond>
0.231

> <Angle>
1.333

> <Pdih>
3.427

> <Idih>
0.000

> <Tether>
0.000

$$$$
VeraChem MOL file


 26 25  0  0  0  0  0  0  0  0999 V2000     
   20.6027   20.3431   20.6458 C   0  0  0  0  0  0  0  0  0  0  0  0
   21.1354   20.9012   19.8650 H   0  0  0  0  0  0  0  0  0  0  0  0
   19.7011   20.9112   20.9089 H   0  0  0  0  0  0  0  0  0  0  0  0
   21.2592   20.3013   21.5235 H   0  0  0  0  0  0  0  0  0  0  0  0
   20.2434   18.9267   20.1464 C   0  0  0  0  0  0  0  0  0  0  0  0
   21.1670   18.3629   19.9546 H   0  0  0  0  0  0  0  0  0  0  0  0
   19.7337   19.0141   19.1767 H   0  0  0  0  0  0  0  0  0  0  0  0
   19.3334   18.1214   21.1088 C   0  0  0  0  0  0  0  0  0  0  0  0
   18.3651   18.6274   21.2249 H   0  0  0  0  0  0  0  0  0  0  0  0
   19.1088   17.1611   20.6242 H   0  0  0  0  0  0  0  0  0  0  0  0
   19.9575   17.8267   22.4978 C   0  0  0  0  0  0  0  0  0  0  0  0
   21.0514   17.7679   22.4140 H   0  0  0  0  0  0  0  0  0  0  0  0
   19.6242   16.8317   22.8239 H   0  0  0  0  0  0  0  0  0  0  0  0
   19.5523   18.8513   23.5857 C   0  0  0  0  0  0  0  0  0  0  0  0
   19.8379   19.8657   23.2828 H   0  0  0  0  0  0  0  0  0  0  0  0
   18.4588   18.8538   23.6945 H   0  0  0  0  0  0  0  0  0  0  0  0
   20.2008   18.5263   24.9493 C   0  0  0  0  0  0  0  0  0  0  0  0
   21.2943   18.5266   24.8477 H   0  0  0  0  0  0  0  0  0  0  0  0
   19.9067   17.5174   25.2682 H   0  0  0  0  0  0  0  0  0  0  0  0
   19.7870   19.5443   26.0266 C   0  0  0  0  0  0  0  0  0  0  0  0
   20.0928   20.5485   25.7210 H   0  0  0  0  0  0  0  0  0  0  0  0
   18.6998   19.5360   26.1426 H   0  0  0  0  0  0  0  0  0  0  0  0
   20.4040   19.2592   27.3806 N   0  3  0  0  0  0  0  0  0  0  0  0
   20.1155   19.9487   28.0834 H   0  0  0  0  0  0  0  0  0  0  0  0
   21.4285   19.2795   27.3458 H   0  0  0  0  0  0  0  0  0  0  0  0
   20.1322   18.3375   27.7380 H   0  0  0  0  0  0  0  0  0  0  0  0
  1  2  1  0  0  0  0
  1  3  1  0  0  0  0
  1  4  1  0  0  0  0
  1  5  1  0  0  0  0
  5  6  1  0  0  0  0
  5  7  1  0  0  0  0
  5  8  1  0  0  0  0
  8  9  1  0  0  0  0
  8 10  1  0  0  0  0
  8 11  1  0  0  0  0
 11 12  1  0  0  0  0
 11 13  1  0  0  0  0
 11 14  1  0  0  0  0
 14 15  1  0  0  0  0
 14 16  1  0  0  0  0
 14 17  1  0  0  0  0
 17 18  1  0  0  0  0
 17 19  1  0  0  0  0
 17 20  1  0  0  0  0
 20 21  1  0  0  0  0
 20 22  1  0  0  0  0
 20 23  1  0  0  0  0
 23 24  1  0  0  0  0
 23 25  1  0  0  0  0
 23 26  1  0  0  0  0
M  END
> <VM2 Rank>
111

> <Conf_Id>
1593

> <Probability>
0.03

> <Sum Probability>
99.21

> <Delta G>
3.352

> <G>
51.613

> <E>
18.910

> <-TS>
32.703

> <U+W>
-2.552

> <U>
50.662

> <W>
-53.213

> <W(PB)>
-55.519

> <W(SA)>
2.305

> <Valence>
5.128

> <Coulomb>
44.842

> <VdW>
0.692

> <VdW6>
-7.327

> <VdW12>
8.019

> <Bond>
0.214

> <Angle>
1.153

> <Pdih>
3.761

> <Idih>
0.000

> <Tether>
0.000

$$$$
VeraChem MOL file


 26 25  0  0  0  0  0  0  0  0999 V2000     
   19.0013   18.1506   19.9054 C   0  0  0  0  0  0  0  0  0  0  0  0
   18.3735   19.0066   19.6253 H   0  0  0  0  0  0  0  0  0  0  0  0
   19.7602   18.0130   19.1242 H   0  0  0  0  0  0  0  0  0  0  0  0
   18.3653   17.2560   19.9180 H   0  0  0  0  0  0  0  0  0  0  0  0
   19.6575   18.3722   21.2847 C   0  0  0  0  0  0  0  0  0  0  0  0
   20.2569   17.4899   21.5491 H   0  0  0  0  0  0  0  0  0  0  0  0
   18.8669   18.4668   22.0407 H   0  0  0  0  0  0  0  0  0  0  0  0
   20.5496   19.6344   21.2956 C   0  0  0  0  0  0  0  0  0  0  0  0
   21.2521   19.5815   20.4523 H   0  0  0  0  0  0  0  0  0  0  0  0
   19.9271   20.5223   21.1186 H   0  0  0  0  0  0  0  0  0  0  0  0
   21.3687   19.8305   22.5976 C   0  0  0  0  0  0  0  0  0  0  0  0
   21.9912   20.7261   22.4635 H   0  0  0  0  0  0  0  0  0  0  0  0
   22.0739   18.9983   22.7291 H   0  0  0  0  0  0  0  0  0  0  0  0
   20.5164   20.0229   23.8791 C   0  0  0  0  0  0  0  0  0  0  0  0
   21.0272   20.7450   24.5314 H   0  0  0  0  0  0  0  0  0  0  0  0
   19.5485   20.4768   23.6247 H   0  0  0  0  0  0  0  0  0  0  0  0
   20.3063   18.7165   24.6817 C   0  0  0  0  0  0  0  0  0  0  0  0
   21.2814   18.3099   24.9816 H   0  0  0  0  0  0  0  0  0  0  0  0
   19.8231   17.9541   24.0603 H   0  0  0  0  0  0  0  0  0  0  0  0
   19.4512   18.9624   25.9370 C   0  0  0  0  0  0  0  0  0  0  0  0
   19.9394   19.7036   26.5756 H   0  0  0  0  0  0  0  0  0  0  0  0
   18.4720   19.3515   25.6449 H   0  0  0  0  0  0  0  0  0  0  0  0
   19.2300   17.7096   26.7599 N   0  3  0  0  0  0  0  0  0  0  0  0
   20.1138   17.3079   27.0895 H   0  0  0  0  0  0  0  0  0  0  0  0
   18.7478   16.9803   26.2244 H   0  0  0  0  0  0  0  0  0  0  0  0
   18.6588   17.8962   27.5914 H   0  0  0  0  0  0  0  0  0  0  0  0
  1  2  1  0  0  0  0
  1  3  1  0  0  0  0
  1  4  1  0  0  0  0
  1  5  1  0  0  0  0
  5  6  1  0  0  0  0
  5  7  1  0  0  0  0
  5  8  1  0  0  0  0
  8  9  1  0  0  0  0
  8 10  1  0  0  0  0
  8 11  1  0  0  0  0
 11 12  1  0  0  0  0
 11 13  1  0  0  0  0
 11 14  1  0  0  0  0
 14 15  1  0  0  0  0
 14 16  1  0  0  0  0
 14 17  1  0  0  0  0
 17 18  1  0  0  0  0
 17 19  1  0  0  0  0
 17 20  1  0  0  0  0
 20 21  1  0  0  0  0
 20 22  1  0  0  0  0
 20 23  1  0  0  0  0
 23 24  1  0  0  0  0
 23 25  1  0  0  0  0
 23 26  1  0  0  0  0
M  END
> <VM2 Rank>
112

> <Conf_Id>
1079

> <Probability>
0.03

> <Sum Probability>
99.23

> <Delta G>
3.368

> <G>
51.629

> <E>
18.907

> <-TS>
32.722

> <U+W>
-2.555

> <U>
51.214

> <W>
-53.769

> <W(PB)>
-56.070

> <W(SA)>
2.302

> <Valence>
5.193

> <Coulomb>
45.364

> <VdW>
0.656

> <VdW6>
-7.405

> <VdW12>
8.062

> <Bond>
0.216

> <Angle>
1.176

> <Pdih>
3.801

> <Idih>
0.000

> <Tether>
0.000

$$$$
VeraChem MOL file


 26 25  0  0  0  0  0  0  0  0999 V2000     
   21.2732   19.7916   20.4701 C   0  0  0  0  0  0  0  0  0  0  0  0
   21.5578   20.5966   21.1600 H   0  0  0  0  0  0  0  0  0  0  0  0
   21.8632   18.9008   20.7187 H   0  0  0  0  0  0  0  0  0  0  0  0
   21.5569   20.1024   19.4563 H   0  0  0  0  0  0  0  0  0  0  0  0
   19.7558   19.5070   20.5436 C   0  0  0  0  0  0  0  0  0  0  0  0
   19.5009   18.6799   19.8663 H   0  0  0  0  0  0  0  0  0  0  0  0
   19.2125   20.3870   20.1718 H   0  0  0  0  0  0  0  0  0  0  0  0
   19.2608   19.1858   21.9743 C   0  0  0  0  0  0  0  0  0  0  0  0
   19.5009   20.0292   22.6315 H   0  0  0  0  0  0  0  0  0  0  0  0
   18.1646   19.1158   21.9536 H   0  0  0  0  0  0  0  0  0  0  0  0
   19.8392   17.8627   22.5402 C   0  0  0  0  0  0  0  0  0  0  0  0
   20.9334   17.9143   22.6120 H   0  0  0  0  0  0  0  0  0  0  0  0
   19.6187   17.0610   21.8219 H   0  0  0  0  0  0  0  0  0  0  0  0
   19.2451   17.4578   23.9149 C   0  0  0  0  0  0  0  0  0  0  0  0
   18.1871   17.7482   23.9739 H   0  0  0  0  0  0  0  0  0  0  0  0
   19.2556   16.3609   23.9805 H   0  0  0  0  0  0  0  0  0  0  0  0
   20.0184   18.0046   25.1413 C   0  0  0  0  0  0  0  0  0  0  0  0
   21.0546   17.6423   25.1136 H   0  0  0  0  0  0  0  0  0  0  0  0
   19.5681   17.5877   26.0520 H   0  0  0  0  0  0  0  0  0  0  0  0
   20.0169   19.5399   25.2445 C   0  0  0  0  0  0  0  0  0  0  0  0
   20.5591   19.9652   24.3966 H   0  0  0  0  0  0  0  0  0  0  0  0
   18.9886   19.9104   25.2223 H   0  0  0  0  0  0  0  0  0  0  0  0
   20.6716   20.0496   26.5121 N   0  3  0  0  0  0  0  0  0  0  0  0
   20.6632   21.0743   26.5600 H   0  0  0  0  0  0  0  0  0  0  0  0
   21.6513   19.7554   26.5811 H   0  0  0  0  0  0  0  0  0  0  0  0
   20.1941   19.7079   27.3526 H   0  0  0  0  0  0  0  0  0  0  0  0
  1  2  1  0  0  0  0
  1  3  1  0  0  0  0
  1  4  1  0  0  0  0
  1  5  1  0  0  0  0
  5  6  1  0  0  0  0
  5  7  1  0  0  0  0
  5  8  1  0  0  0  0
  8  9  1  0  0  0  0
  8 10  1  0  0  0  0
  8 11  1  0  0  0  0
 11 12  1  0  0  0  0
 11 13  1  0  0  0  0
 11 14  1  0  0  0  0
 14 15  1  0  0  0  0
 14 16  1  0  0  0  0
 14 17  1  0  0  0  0
 17 18  1  0  0  0  0
 17 19  1  0  0  0  0
 17 20  1  0  0  0  0
 20 21  1  0  0  0  0
 20 22  1  0  0  0  0
 20 23  1  0  0  0  0
 23 24  1  0  0  0  0
 23 25  1  0  0  0  0
 23 26  1  0  0  0  0
M  END
> <VM2 Rank>
113

> <Conf_Id>
1368

> <Probability>
0.03

> <Sum Probability>
99.26

> <Delta G>
3.373

> <G>
51.634

> <E>
19.106

> <-TS>
32.528

> <U+W>
-2.356

> <U>
51.489

> <W>
-53.845

> <W(PB)>
-56.163

> <W(SA)>
2.318

> <Valence>
5.168

> <Coulomb>
45.587

> <VdW>
0.733

> <VdW6>
-7.960

> <VdW12>
8.693

> <Bond>
0.251

> <Angle>
1.358

> <Pdih>
3.560

> <Idih>
0.000

> <Tether>
0.000

$$$$
VeraChem MOL file


 26 25  0  0  0  0  0  0  0  0999 V2000     
   18.9914   17.9656   20.0448 C   0  0  0  0  0  0  0  0  0  0  0  0
   17.9978   18.2416   20.4213 H   0  0  0  0  0  0  0  0  0  0  0  0
   19.1804   18.5378   19.1271 H   0  0  0  0  0  0  0  0  0  0  0  0
   18.9671   16.9008   19.7788 H   0  0  0  0  0  0  0  0  0  0  0  0
   20.0807   18.2383   21.1035 C   0  0  0  0  0  0  0  0  0  0  0  0
   21.0559   17.9200   20.7092 H   0  0  0  0  0  0  0  0  0  0  0  0
   19.8856   17.6192   21.9872 H   0  0  0  0  0  0  0  0  0  0  0  0
   20.1414   19.7369   21.4861 C   0  0  0  0  0  0  0  0  0  0  0  0
   20.3730   20.3112   20.5783 H   0  0  0  0  0  0  0  0  0  0  0  0
   19.1560   20.0874   21.8225 H   0  0  0  0  0  0  0  0  0  0  0  0
   21.2164   20.0581   22.5571 C   0  0  0  0  0  0  0  0  0  0  0  0
   21.6501   21.0400   22.3221 H   0  0  0  0  0  0  0  0  0  0  0  0
   22.0486   19.3440   22.4885 H   0  0  0  0  0  0  0  0  0  0  0  0
   20.6849   20.1201   24.0126 C   0  0  0  0  0  0  0  0  0  0  0  0
   21.5133   20.4206   24.6693 H   0  0  0  0  0  0  0  0  0  0  0  0
   19.9294   20.9141   24.0917 H   0  0  0  0  0  0  0  0  0  0  0  0
   20.0897   18.7922   24.5328 C   0  0  0  0  0  0  0  0  0  0  0  0
   20.8095   17.9774   24.3789 H   0  0  0  0  0  0  0  0  0  0  0  0
   19.1831   18.5435   23.9670 H   0  0  0  0  0  0  0  0  0  0  0  0
   19.7335   18.8850   26.0269 C   0  0  0  0  0  0  0  0  0  0  0  0
   20.6313   19.1184   26.6056 H   0  0  0  0  0  0  0  0  0  0  0  0
   19.0058   19.6859   26.1828 H   0  0  0  0  0  0  0  0  0  0  0  0
   19.1430   17.6028   26.5773 N   0  3  0  0  0  0  0  0  0  0  0  0
   19.7909   16.8135   26.4858 H   0  0  0  0  0  0  0  0  0  0  0  0
   18.2780   17.3414   26.0929 H   0  0  0  0  0  0  0  0  0  0  0  0
   18.9135   17.6865   27.5736 H   0  0  0  0  0  0  0  0  0  0  0  0
  1  2  1  0  0  0  0
  1  3  1  0  0  0  0
  1  4  1  0  0  0  0
  1  5  1  0  0  0  0
  5  6  1  0  0  0  0
  5  7  1  0  0  0  0
  5  8  1  0  0  0  0
  8  9  1  0  0  0  0
  8 10  1  0  0  0  0
  8 11  1  0  0  0  0
 11 12  1  0  0  0  0
 11 13  1  0  0  0  0
 11 14  1  0  0  0  0
 14 15  1  0  0  0  0
 14 16  1  0  0  0  0
 14 17  1  0  0  0  0
 17 18  1  0  0  0  0
 17 19  1  0  0  0  0
 17 20  1  0  0  0  0
 20 21  1  0  0  0  0
 20 22  1  0  0  0  0
 20 23  1  0  0  0  0
 23 24  1  0  0  0  0
 23 25  1  0  0  0  0
 23 26  1  0  0  0  0
M  END
> <VM2 Rank>
114

> <Conf_Id>
732

> <Probability>
0.02

> <Sum Probability>
99.28

> <Delta G>
3.395

> <G>
51.657

> <E>
18.929

> <-TS>
32.728

> <U+W>
-2.533

> <U>
51.184

> <W>
-53.717

> <W(PB)>
-56.005

> <W(SA)>
2.288

> <Valence>
5.187

> <Coulomb>
45.354

> <VdW>
0.642

> <VdW6>
-7.428

> <VdW12>
8.069

> <Bond>
0.216

> <Angle>
1.173

> <Pdih>
3.799

> <Idih>
0.000

> <Tether>
0.000

$$$$
VeraChem MOL file


 26 25  0  0  0  0  0  0  0  0999 V2000     
   21.2753   19.6499   19.9814 C   0  0  0  0  0  0  0  0  0  0  0  0
   21.1398   18.9226   19.1703 H   0  0  0  0  0  0  0  0  0  0  0  0
   20.7489   20.5727   19.7047 H   0  0  0  0  0  0  0  0  0  0  0  0
   22.3462   19.8807   20.0511 H   0  0  0  0  0  0  0  0  0  0  0  0
   20.7498   19.0923   21.3213 C   0  0  0  0  0  0  0  0  0  0  0  0
   20.9383   19.8325   22.1099 H   0  0  0  0  0  0  0  0  0  0  0  0
   21.3122   18.1857   21.5844 H   0  0  0  0  0  0  0  0  0  0  0  0
   19.2395   18.7706   21.2518 C   0  0  0  0  0  0  0  0  0  0  0  0
   18.6769   19.6980   21.0769 H   0  0  0  0  0  0  0  0  0  0  0  0
   19.0513   18.1306   20.3788 H   0  0  0  0  0  0  0  0  0  0  0  0
   18.6769   18.0557   22.5076 C   0  0  0  0  0  0  0  0  0  0  0  0
   19.1580   17.0757   22.6317 H   0  0  0  0  0  0  0  0  0  0  0  0
   17.6160   17.8415   22.3173 H   0  0  0  0  0  0  0  0  0  0  0  0
   18.7754   18.8750   23.8210 C   0  0  0  0  0  0  0  0  0  0  0  0
   18.7507   19.9508   23.5982 H   0  0  0  0  0  0  0  0  0  0  0  0
   17.8812   18.6706   24.4263 H   0  0  0  0  0  0  0  0  0  0  0  0
   20.0205   18.5280   24.6721 C   0  0  0  0  0  0  0  0  0  0  0  0
   20.9394   18.6902   24.0976 H   0  0  0  0  0  0  0  0  0  0  0  0
   19.9968   17.4629   24.9386 H   0  0  0  0  0  0  0  0  0  0  0  0
   20.0722   19.3718   25.9578 C   0  0  0  0  0  0  0  0  0  0  0  0
   20.1130   20.4335   25.6998 H   0  0  0  0  0  0  0  0  0  0  0  0
   19.1700   19.1961   26.5500 H   0  0  0  0  0  0  0  0  0  0  0  0
   21.2715   19.0557   26.8280 N   0  3  0  0  0  0  0  0  0  0  0  0
   22.1556   19.2274   26.3380 H   0  0  0  0  0  0  0  0  0  0  0  0
   21.2780   18.0753   27.1282 H   0  0  0  0  0  0  0  0  0  0  0  0
   21.2859   19.6283   27.6791 H   0  0  0  0  0  0  0  0  0  0  0  0
  1  2  1  0  0  0  0
  1  3  1  0  0  0  0
  1  4  1  0  0  0  0
  1  5  1  0  0  0  0
  5  6  1  0  0  0  0
  5  7  1  0  0  0  0
  5  8  1  0  0  0  0
  8  9  1  0  0  0  0
  8 10  1  0  0  0  0
  8 11  1  0  0  0  0
 11 12  1  0  0  0  0
 11 13  1  0  0  0  0
 11 14  1  0  0  0  0
 14 15  1  0  0  0  0
 14 16  1  0  0  0  0
 14 17  1  0  0  0  0
 17 18  1  0  0  0  0
 17 19  1  0  0  0  0
 17 20  1  0  0  0  0
 20 21  1  0  0  0  0
 20 22  1  0  0  0  0
 20 23  1  0  0  0  0
 23 24  1  0  0  0  0
 23 25  1  0  0  0  0
 23 26  1  0  0  0  0
M  END
> <VM2 Rank>
115

> <Conf_Id>
1116

> <Probability>
0.02

> <Sum Probability>
99.31

> <Delta G>
3.420

> <G>
51.681

> <E>
18.959

> <-TS>
32.722

> <U+W>
-2.503

> <U>
51.214

> <W>
-53.717

> <W(PB)>
-56.010

> <W(SA)>
2.294

> <Valence>
5.193

> <Coulomb>
45.364

> <VdW>
0.656

> <VdW6>
-7.405

> <VdW12>
8.062

> <Bond>
0.216

> <Angle>
1.176

> <Pdih>
3.800

> <Idih>
0.000

> <Tether>
0.000

$$$$
VeraChem MOL file


 26 25  0  0  0  0  0  0  0  0999 V2000     
   20.0255   17.9126   20.0020 C   0  0  0  0  0  0  0  0  0  0  0  0
   21.1040   18.1091   20.0454 H   0  0  0  0  0  0  0  0  0  0  0  0
   19.8290   16.9581   20.5072 H   0  0  0  0  0  0  0  0  0  0  0  0
   19.7532   17.7956   18.9451 H   0  0  0  0  0  0  0  0  0  0  0  0
   19.2142   19.0596   20.6462 C   0  0  0  0  0  0  0  0  0  0  0  0
   18.1438   18.8747   20.4796 H   0  0  0  0  0  0  0  0  0  0  0  0
   19.4453   20.0062   20.1380 H   0  0  0  0  0  0  0  0  0  0  0  0
   19.4632   19.2070   22.1666 C   0  0  0  0  0  0  0  0  0  0  0  0
   18.7847   19.9768   22.5593 H   0  0  0  0  0  0  0  0  0  0  0  0
   19.1965   18.2643   22.6614 H   0  0  0  0  0  0  0  0  0  0  0  0
   20.9235   19.5879   22.5134 C   0  0  0  0  0  0  0  0  0  0  0  0
   21.2394   20.4153   21.8633 H   0  0  0  0  0  0  0  0  0  0  0  0
   21.5902   18.7460   22.2837 H   0  0  0  0  0  0  0  0  0  0  0  0
   21.1423   20.0205   23.9865 C   0  0  0  0  0  0  0  0  0  0  0  0
   22.1942   20.3205   24.0904 H   0  0  0  0  0  0  0  0  0  0  0  0
   20.5532   20.9213   24.2078 H   0  0  0  0  0  0  0  0  0  0  0  0
   20.8492   18.9221   25.0395 C   0  0  0  0  0  0  0  0  0  0  0  0
   21.4552   19.1246   25.9326 H   0  0  0  0  0  0  0  0  0  0  0  0
   21.1706   17.9422   24.6621 H   0  0  0  0  0  0  0  0  0  0  0  0
   19.3695   18.8721   25.4674 C   0  0  0  0  0  0  0  0  0  0  0  0
   19.0745   19.8414   25.8781 H   0  0  0  0  0  0  0  0  0  0  0  0
   18.7330   18.6585   24.6070 H   0  0  0  0  0  0  0  0  0  0  0  0
   19.0937   17.8173   26.5194 N   0  3  0  0  0  0  0  0  0  0  0  0
   19.3254   16.8757   26.1866 H   0  0  0  0  0  0  0  0  0  0  0  0
   18.1054   17.8024   26.7943 H   0  0  0  0  0  0  0  0  0  0  0  0
   19.6381   17.9780   27.3732 H   0  0  0  0  0  0  0  0  0  0  0  0
  1  2  1  0  0  0  0
  1  3  1  0  0  0  0
  1  4  1  0  0  0  0
  1  5  1  0  0  0  0
  5  6  1  0  0  0  0
  5  7  1  0  0  0  0
  5  8  1  0  0  0  0
  8  9  1  0  0  0  0
  8 10  1  0  0  0  0
  8 11  1  0  0  0  0
 11 12  1  0  0  0  0
 11 13  1  0  0  0  0
 11 14  1  0  0  0  0
 14 15  1  0  0  0  0
 14 16  1  0  0  0  0
 14 17  1  0  0  0  0
 17 18  1  0  0  0  0
 17 19  1  0  0  0  0
 17 20  1  0  0  0  0
 20 21  1  0  0  0  0
 20 22  1  0  0  0  0
 20 23  1  0  0  0  0
 23 24  1  0  0  0  0
 23 25  1  0  0  0  0
 23 26  1  0  0  0  0
M  END
> <VM2 Rank>
116

> <Conf_Id>
742

> <Probability>
0.02

> <Sum Probability>
99.33

> <Delta G>
3.438

> <G>
51.699

> <E>
18.884

> <-TS>
32.815

> <U+W>
-2.578

> <U>
51.327

> <W>
-53.905

> <W(PB)>
-56.204

> <W(SA)>
2.299

> <Valence>
4.992

> <Coulomb>
45.664

> <VdW>
0.672

> <VdW6>
-8.113

> <VdW12>
8.785

> <Bond>
0.231

> <Angle>
1.333

> <Pdih>
3.427

> <Idih>
0.000

> <Tether>
0.000

$$$$
VeraChem MOL file


 26 25  0  0  0  0  0  0  0  0999 V2000     
   19.9727   18.9636   19.2274 C   0  0  0  0  0  0  0  0  0  0  0  0
   19.3362   19.8465   19.0836 H   0  0  0  0  0  0  0  0  0  0  0  0
   20.8237   19.0459   18.5389 H   0  0  0  0  0  0  0  0  0  0  0  0
   19.3942   18.0750   18.9429 H   0  0  0  0  0  0  0  0  0  0  0  0
   20.4612   18.8644   20.6882 C   0  0  0  0  0  0  0  0  0  0  0  0
   21.0694   19.7485   20.9195 H   0  0  0  0  0  0  0  0  0  0  0  0
   21.1178   17.9895   20.7933 H   0  0  0  0  0  0  0  0  0  0  0  0
   19.2773   18.7514   21.6781 C   0  0  0  0  0  0  0  0  0  0  0  0
   18.6497   19.6509   21.6119 H   0  0  0  0  0  0  0  0  0  0  0  0
   18.6409   17.9094   21.3727 H   0  0  0  0  0  0  0  0  0  0  0  0
   19.7118   18.5266   23.1476 C   0  0  0  0  0  0  0  0  0  0  0  0
   20.3654   17.6453   23.2066 H   0  0  0  0  0  0  0  0  0  0  0  0
   18.8101   18.2935   23.7266 H   0  0  0  0  0  0  0  0  0  0  0  0
   20.4182   19.7527   23.7789 C   0  0  0  0  0  0  0  0  0  0  0  0
   21.2681   20.0498   23.1518 H   0  0  0  0  0  0  0  0  0  0  0  0
   19.7287   20.6082   23.7860 H   0  0  0  0  0  0  0  0  0  0  0  0
   20.9559   19.5132   25.2132 C   0  0  0  0  0  0  0  0  0  0  0  0
   21.4995   20.4158   25.5226 H   0  0  0  0  0  0  0  0  0  0  0  0
   21.6957   18.7017   25.2136 H   0  0  0  0  0  0  0  0  0  0  0  0
   19.8667   19.2369   26.2704 C   0  0  0  0  0  0  0  0  0  0  0  0
   20.2573   19.4940   27.2587 H   0  0  0  0  0  0  0  0  0  0  0  0
   18.9932   19.8654   26.0772 H   0  0  0  0  0  0  0  0  0  0  0  0
   19.4171   17.7901   26.3372 N   0  3  0  0  0  0  0  0  0  0  0  0
   18.6928   17.6498   27.0500 H   0  0  0  0  0  0  0  0  0  0  0  0
   20.1928   17.1626   26.5730 H   0  0  0  0  0  0  0  0  0  0  0  0
   19.0296   17.4699   25.4454 H   0  0  0  0  0  0  0  0  0  0  0  0
  1  2  1  0  0  0  0
  1  3  1  0  0  0  0
  1  4  1  0  0  0  0
  1  5  1  0  0  0  0
  5  6  1  0  0  0  0
  5  7  1  0  0  0  0
  5  8  1  0  0  0  0
  8  9  1  0  0  0  0
  8 10  1  0  0  0  0
  8 11  1  0  0  0  0
 11 12  1  0  0  0  0
 11 13  1  0  0  0  0
 11 14  1  0  0  0  0
 14 15  1  0  0  0  0
 14 16  1  0  0  0  0
 14 17  1  0  0  0  0
 17 18  1  0  0  0  0
 17 19  1  0  0  0  0
 17 20  1  0  0  0  0
 20 21  1  0  0  0  0
 20 22  1  0  0  0  0
 20 23  1  0  0  0  0
 23 24  1  0  0  0  0
 23 25  1  0  0  0  0
 23 26  1  0  0  0  0
M  END
> <VM2 Rank>
117

> <Conf_Id>
1572

> <Probability>
0.02

> <Sum Probability>
99.35

> <Delta G>
3.448

> <G>
51.709

> <E>
19.202

> <-TS>
32.507

> <U+W>
-2.260

> <U>
51.605

> <W>
-53.865

> <W(PB)>
-56.157

> <W(SA)>
2.292

> <Valence>
4.452

> <Coulomb>
46.418

> <VdW>
0.736

> <VdW6>
-7.820

> <VdW12>
8.556

> <Bond>
0.235

> <Angle>
1.295

> <Pdih>
2.922

> <Idih>
0.000

> <Tether>
0.000

$$$$
VeraChem MOL file


 26 25  0  0  0  0  0  0  0  0999 V2000     
   20.0275   17.6562   20.1496 C   0  0  0  0  0  0  0  0  0  0  0  0
   18.9981   17.8633   19.8296 H   0  0  0  0  0  0  0  0  0  0  0  0
   20.5357   17.1345   19.3283 H   0  0  0  0  0  0  0  0  0  0  0  0
   19.9908   16.9687   21.0037 H   0  0  0  0  0  0  0  0  0  0  0  0
   20.7730   18.9630   20.5034 C   0  0  0  0  0  0  0  0  0  0  0  0
   20.8905   19.5621   19.5895 H   0  0  0  0  0  0  0  0  0  0  0  0
   21.7893   18.7270   20.8485 H   0  0  0  0  0  0  0  0  0  0  0  0
   20.0438   19.8187   21.5673 C   0  0  0  0  0  0  0  0  0  0  0  0
   20.5828   20.7696   21.6796 H   0  0  0  0  0  0  0  0  0  0  0  0
   19.0383   20.0741   21.2053 H   0  0  0  0  0  0  0  0  0  0  0  0
   19.9425   19.1290   22.9489 C   0  0  0  0  0  0  0  0  0  0  0  0
   20.9486   18.8289   23.2665 H   0  0  0  0  0  0  0  0  0  0  0  0
   19.3356   18.2179   22.8661 H   0  0  0  0  0  0  0  0  0  0  0  0
   19.3158   20.0650   24.0094 C   0  0  0  0  0  0  0  0  0  0  0  0
   19.9814   20.9223   24.1810 H   0  0  0  0  0  0  0  0  0  0  0  0
   18.3801   20.4794   23.6091 H   0  0  0  0  0  0  0  0  0  0  0  0
   18.9990   19.3794   25.3631 C   0  0  0  0  0  0  0  0  0  0  0  0
   18.2836   18.5589   25.2181 H   0  0  0  0  0  0  0  0  0  0  0  0
   18.4895   20.1139   26.0009 H   0  0  0  0  0  0  0  0  0  0  0  0
   20.2379   18.8711   26.1294 C   0  0  0  0  0  0  0  0  0  0  0  0
   21.0526   19.5946   26.0396 H   0  0  0  0  0  0  0  0  0  0  0  0
   19.9858   18.7743   27.1889 H   0  0  0  0  0  0  0  0  0  0  0  0
   20.7415   17.5166   25.6700 N   0  3  0  0  0  0  0  0  0  0  0  0
   20.0297   16.7880   25.7869 H   0  0  0  0  0  0  0  0  0  0  0  0
   21.5655   17.2170   26.2027 H   0  0  0  0  0  0  0  0  0  0  0  0
   21.0068   17.5250   24.6813 H   0  0  0  0  0  0  0  0  0  0  0  0
  1  2  1  0  0  0  0
  1  3  1  0  0  0  0
  1  4  1  0  0  0  0
  1  5  1  0  0  0  0
  5  6  1  0  0  0  0
  5  7  1  0  0  0  0
  5  8  1  0  0  0  0
  8  9  1  0  0  0  0
  8 10  1  0  0  0  0
  8 11  1  0  0  0  0
 11 12  1  0  0  0  0
 11 13  1  0  0  0  0
 11 14  1  0  0  0  0
 14 15  1  0  0  0  0
 14 16  1  0  0  0  0
 14 17  1  0  0  0  0
 17 18  1  0  0  0  0
 17 19  1  0  0  0  0
 17 20  1  0  0  0  0
 20 21  1  0  0  0  0
 20 22  1  0  0  0  0
 20 23  1  0  0  0  0
 23 24  1  0  0  0  0
 23 25  1  0  0  0  0
 23 26  1  0  0  0  0
M  END
> <VM2 Rank>
118

> <Conf_Id>
1578

> <Probability>
0.02

> <Sum Probability>
99.37

> <Delta G>
3.493

> <G>
51.755

> <E>
19.127

> <-TS>
32.628

> <U+W>
-2.335

> <U>
51.553

> <W>
-53.888

> <W(PB)>
-56.152

> <W(SA)>
2.263

> <Valence>
4.248

> <Coulomb>
46.644

> <VdW>
0.661

> <VdW6>
-7.942

> <VdW12>
8.603

> <Bond>
0.222

> <Angle>
1.189

> <Pdih>
2.837

> <Idih>
0.000

> <Tether>
0.000

$$$$
VeraChem MOL file


 26 25  0  0  0  0  0  0  0  0999 V2000     
   18.9908   19.9253   20.6638 C   0  0  0  0  0  0  0  0  0  0  0  0
   18.3325   19.4244   21.3842 H   0  0  0  0  0  0  0  0  0  0  0  0
   19.3637   20.8534   21.1159 H   0  0  0  0  0  0  0  0  0  0  0  0
   18.3781   20.1974   19.7947 H   0  0  0  0  0  0  0  0  0  0  0  0
   20.1557   19.0063   20.2359 C   0  0  0  0  0  0  0  0  0  0  0  0
   20.6841   19.4763   19.3946 H   0  0  0  0  0  0  0  0  0  0  0  0
   19.7505   18.0605   19.8499 H   0  0  0  0  0  0  0  0  0  0  0  0
   21.1834   18.7118   21.3584 C   0  0  0  0  0  0  0  0  0  0  0  0
   21.9819   18.0965   20.9213 H   0  0  0  0  0  0  0  0  0  0  0  0
   21.6699   19.6433   21.6787 H   0  0  0  0  0  0  0  0  0  0  0  0
   20.6073   17.9553   22.5838 C   0  0  0  0  0  0  0  0  0  0  0  0
   21.3784   17.2703   22.9627 H   0  0  0  0  0  0  0  0  0  0  0  0
   19.7651   17.3220   22.2728 H   0  0  0  0  0  0  0  0  0  0  0  0
   20.1828   18.8906   23.7424 C   0  0  0  0  0  0  0  0  0  0  0  0
   21.0535   19.4748   24.0685 H   0  0  0  0  0  0  0  0  0  0  0  0
   19.4329   19.6121   23.3969 H   0  0  0  0  0  0  0  0  0  0  0  0
   19.6095   18.0948   24.9387 C   0  0  0  0  0  0  0  0  0  0  0  0
   20.3645   17.3961   25.3232 H   0  0  0  0  0  0  0  0  0  0  0  0
   18.7631   17.4844   24.5965 H   0  0  0  0  0  0  0  0  0  0  0  0
   19.1222   19.0061   26.0817 C   0  0  0  0  0  0  0  0  0  0  0  0
   18.3747   19.7070   25.7005 H   0  0  0  0  0  0  0  0  0  0  0  0
   18.6526   18.3952   26.8574 H   0  0  0  0  0  0  0  0  0  0  0  0
   20.2293   19.8088   26.7364 N   0  3  0  0  0  0  0  0  0  0  0  0
   20.6908   20.4342   26.0687 H   0  0  0  0  0  0  0  0  0  0  0  0
   20.9538   19.2030   27.1353 H   0  0  0  0  0  0  0  0  0  0  0  0
   19.8744   20.3942   27.5004 H   0  0  0  0  0  0  0  0  0  0  0  0
  1  2  1  0  0  0  0
  1  3  1  0  0  0  0
  1  4  1  0  0  0  0
  1  5  1  0  0  0  0
  5  6  1  0  0  0  0
  5  7  1  0  0  0  0
  5  8  1  0  0  0  0
  8  9  1  0  0  0  0
  8 10  1  0  0  0  0
  8 11  1  0  0  0  0
 11 12  1  0  0  0  0
 11 13  1  0  0  0  0
 11 14  1  0  0  0  0
 14 15  1  0  0  0  0
 14 16  1  0  0  0  0
 14 17  1  0  0  0  0
 17 18  1  0  0  0  0
 17 19  1  0  0  0  0
 17 20  1  0  0  0  0
 20 21  1  0  0  0  0
 20 22  1  0  0  0  0
 20 23  1  0  0  0  0
 23 24  1  0  0  0  0
 23 25  1  0  0  0  0
 23 26  1  0  0  0  0
M  END
> <VM2 Rank>
119

> <Conf_Id>
795

> <Probability>
0.02

> <Sum Probability>
99.39

> <Delta G>
3.526

> <G>
51.787

> <E>
18.982

> <-TS>
32.805

> <U+W>
-2.480

> <U>
51.297

> <W>
-53.777

> <W(PB)>
-56.034

> <W(SA)>
2.257

> <Valence>
5.228

> <Coulomb>
45.276

> <VdW>
0.793

> <VdW6>
-7.860

> <VdW12>
8.653

> <Bond>
0.234

> <Angle>
1.198

> <Pdih>
3.797

> <Idih>
0.000

> <Tether>
0.000

$$$$
VeraChem MOL file


 26 25  0  0  0  0  0  0  0  0999 V2000     
   21.3143   18.5031   20.1929 C   0  0  0  0  0  0  0  0  0  0  0  0
   21.5452   19.5397   19.9152 H   0  0  0  0  0  0  0  0  0  0  0  0
   21.9197   18.2382   21.0685 H   0  0  0  0  0  0  0  0  0  0  0  0
   21.6311   17.8555   19.3651 H   0  0  0  0  0  0  0  0  0  0  0  0
   19.8044   18.3254   20.4709 C   0  0  0  0  0  0  0  0  0  0  0  0
   19.6041   17.2886   20.7753 H   0  0  0  0  0  0  0  0  0  0  0  0
   19.2510   18.4829   19.5346 H   0  0  0  0  0  0  0  0  0  0  0  0
   19.2568   19.3006   21.5410 C   0  0  0  0  0  0  0  0  0  0  0  0
   19.4356   20.3357   21.2186 H   0  0  0  0  0  0  0  0  0  0  0  0
   18.1663   19.1788   21.5988 H   0  0  0  0  0  0  0  0  0  0  0  0
   19.8653   19.0783   22.9463 C   0  0  0  0  0  0  0  0  0  0  0  0
   20.9446   19.2776   22.9200 H   0  0  0  0  0  0  0  0  0  0  0  0
   19.7296   18.0263   23.2256 H   0  0  0  0  0  0  0  0  0  0  0  0
   19.2035   19.9911   24.0056 C   0  0  0  0  0  0  0  0  0  0  0  0
   19.2104   21.0262   23.6369 H   0  0  0  0  0  0  0  0  0  0  0  0
   18.1463   19.7139   24.1197 H   0  0  0  0  0  0  0  0  0  0  0  0
   19.8946   19.9693   25.3931 C   0  0  0  0  0  0  0  0  0  0  0  0
   19.3912   20.7077   26.0312 H   0  0  0  0  0  0  0  0  0  0  0  0
   20.9362   20.3061   25.3068 H   0  0  0  0  0  0  0  0  0  0  0  0
   19.8377   18.6074   26.1158 C   0  0  0  0  0  0  0  0  0  0  0  0
   19.9763   18.7679   27.1885 H   0  0  0  0  0  0  0  0  0  0  0  0
   18.8569   18.1481   25.9658 H   0  0  0  0  0  0  0  0  0  0  0  0
   20.9045   17.6238   25.6754 N   0  3  0  0  0  0  0  0  0  0  0  0
   21.8481   17.9857   25.8479 H   0  0  0  0  0  0  0  0  0  0  0  0
   20.8387   17.4141   24.6755 H   0  0  0  0  0  0  0  0  0  0  0  0
   20.8302   16.7325   26.1778 H   0  0  0  0  0  0  0  0  0  0  0  0
  1  2  1  0  0  0  0
  1  3  1  0  0  0  0
  1  4  1  0  0  0  0
  1  5  1  0  0  0  0
  5  6  1  0  0  0  0
  5  7  1  0  0  0  0
  5  8  1  0  0  0  0
  8  9  1  0  0  0  0
  8 10  1  0  0  0  0
  8 11  1  0  0  0  0
 11 12  1  0  0  0  0
 11 13  1  0  0  0  0
 11 14  1  0  0  0  0
 14 15  1  0  0  0  0
 14 16  1  0  0  0  0
 14 17  1  0  0  0  0
 17 18  1  0  0  0  0
 17 19  1  0  0  0  0
 17 20  1  0  0  0  0
 20 21  1  0  0  0  0
 20 22  1  0  0  0  0
 20 23  1  0  0  0  0
 23 24  1  0  0  0  0
 23 25  1  0  0  0  0
 23 26  1  0  0  0  0
M  END
> <VM2 Rank>
120

> <Conf_Id>
173

> <Probability>
0.02

> <Sum Probability>
99.41

> <Delta G>
3.547

> <G>
51.808

> <E>
19.180

> <-TS>
32.628

> <U+W>
-2.282

> <U>
51.553

> <W>
-53.836

> <W(PB)>
-56.123

> <W(SA)>
2.288

> <Valence>
4.249

> <Coulomb>
46.644

> <VdW>
0.661

> <VdW6>
-7.942

> <VdW12>
8.602

> <Bond>
0.222

> <Angle>
1.190

> <Pdih>
2.838

> <Idih>
0.000

> <Tether>
0.000

$$$$
VeraChem MOL file


 26 25  0  0  0  0  0  0  0  0999 V2000     
   19.6136   20.3360   20.6845 C   0  0  0  0  0  0  0  0  0  0  0  0
   18.5935   20.3454   21.0897 H   0  0  0  0  0  0  0  0  0  0  0  0
   20.2984   20.7212   21.4499 H   0  0  0  0  0  0  0  0  0  0  0  0
   19.6448   21.0328   19.8369 H   0  0  0  0  0  0  0  0  0  0  0  0
   20.0205   18.9170   20.2313 C   0  0  0  0  0  0  0  0  0  0  0  0
   21.0663   18.9283   19.8939 H   0  0  0  0  0  0  0  0  0  0  0  0
   19.4206   18.6426   19.3523 H   0  0  0  0  0  0  0  0  0  0  0  0
   19.8354   17.8226   21.3133 C   0  0  0  0  0  0  0  0  0  0  0  0
   18.7738   17.7329   21.5819 H   0  0  0  0  0  0  0  0  0  0  0  0
   20.1076   16.8599   20.8587 H   0  0  0  0  0  0  0  0  0  0  0  0
   20.6994   18.0161   22.5869 C   0  0  0  0  0  0  0  0  0  0  0  0
   21.6260   18.5499   22.3350 H   0  0  0  0  0  0  0  0  0  0  0  0
   21.0084   17.0263   22.9503 H   0  0  0  0  0  0  0  0  0  0  0  0
   19.9527   18.7389   23.7348 C   0  0  0  0  0  0  0  0  0  0  0  0
   19.6000   19.7225   23.4024 H   0  0  0  0  0  0  0  0  0  0  0  0
   19.0594   18.1590   24.0021 H   0  0  0  0  0  0  0  0  0  0  0  0
   20.8533   18.9157   24.9801 C   0  0  0  0  0  0  0  0  0  0  0  0
   21.7617   19.4636   24.6965 H   0  0  0  0  0  0  0  0  0  0  0  0
   21.1813   17.9353   25.3504 H   0  0  0  0  0  0  0  0  0  0  0  0
   20.1540   19.6870   26.1161 C   0  0  0  0  0  0  0  0  0  0  0  0
   20.8635   19.8544   26.9310 H   0  0  0  0  0  0  0  0  0  0  0  0
   19.8206   20.6614   25.7488 H   0  0  0  0  0  0  0  0  0  0  0  0
   18.9522   18.9656   26.6940 N   0  3  0  0  0  0  0  0  0  0  0  0
   19.2064   18.0494   27.0773 H   0  0  0  0  0  0  0  0  0  0  0  0
   18.2276   18.8081   25.9869 H   0  0  0  0  0  0  0  0  0  0  0  0
   18.5181   19.4987   27.4554 H   0  0  0  0  0  0  0  0  0  0  0  0
  1  2  1  0  0  0  0
  1  3  1  0  0  0  0
  1  4  1  0  0  0  0
  1  5  1  0  0  0  0
  5  6  1  0  0  0  0
  5  7  1  0  0  0  0
  5  8  1  0  0  0  0
  8  9  1  0  0  0  0
  8 10  1  0  0  0  0
  8 11  1  0  0  0  0
 11 12  1  0  0  0  0
 11 13  1  0  0  0  0
 11 14  1  0  0  0  0
 14 15  1  0  0  0  0
 14 16  1  0  0  0  0
 14 17  1  0  0  0  0
 17 18  1  0  0  0  0
 17 19  1  0  0  0  0
 17 20  1  0  0  0  0
 20 21  1  0  0  0  0
 20 22  1  0  0  0  0
 20 23  1  0  0  0  0
 23 24  1  0  0  0  0
 23 25  1  0  0  0  0
 23 26  1  0  0  0  0
M  END
> <VM2 Rank>
121

> <Conf_Id>
241

> <Probability>
0.02

> <Sum Probability>
99.43

> <Delta G>
3.553

> <G>
51.814

> <E>
19.009

> <-TS>
32.805

> <U+W>
-2.453

> <U>
51.297

> <W>
-53.750

> <W(PB)>
-56.016

> <W(SA)>
2.267

> <Valence>
5.228

> <Coulomb>
45.275

> <VdW>
0.793

> <VdW6>
-7.860

> <VdW12>
8.653

> <Bond>
0.234

> <Angle>
1.197

> <Pdih>
3.797

> <Idih>
0.000

> <Tether>
0.000

$$$$
VeraChem MOL file


 26 25  0  0  0  0  0  0  0  0999 V2000     
   18.8431   18.0881   20.3482 C   0  0  0  0  0  0  0  0  0  0  0  0
   18.1249   18.9154   20.2791 H   0  0  0  0  0  0  0  0  0  0  0  0
   18.6996   17.4451   19.4703 H   0  0  0  0  0  0  0  0  0  0  0  0
   18.5980   17.4923   21.2359 H   0  0  0  0  0  0  0  0  0  0  0  0
   20.2951   18.6154   20.4001 C   0  0  0  0  0  0  0  0  0  0  0  0
   20.5322   19.0932   19.4392 H   0  0  0  0  0  0  0  0  0  0  0  0
   20.9915   17.7715   20.5034 H   0  0  0  0  0  0  0  0  0  0  0  0
   20.5395   19.6382   21.5359 C   0  0  0  0  0  0  0  0  0  0  0  0
   21.5562   20.0408   21.4280 H   0  0  0  0  0  0  0  0  0  0  0  0
   19.8556   20.4898   21.4164 H   0  0  0  0  0  0  0  0  0  0  0  0
   20.3808   19.0360   22.9526 C   0  0  0  0  0  0  0  0  0  0  0  0
   21.0347   18.1587   23.0520 H   0  0  0  0  0  0  0  0  0  0  0  0
   19.3475   18.6947   23.0828 H   0  0  0  0  0  0  0  0  0  0  0  0
   20.7226   20.0675   24.0539 C   0  0  0  0  0  0  0  0  0  0  0  0
   21.7024   20.5133   23.8335 H   0  0  0  0  0  0  0  0  0  0  0  0
   19.9970   20.8920   24.0208 H   0  0  0  0  0  0  0  0  0  0  0  0
   20.7726   19.4818   25.4883 C   0  0  0  0  0  0  0  0  0  0  0  0
   21.0958   20.2822   26.1672 H   0  0  0  0  0  0  0  0  0  0  0  0
   21.5417   18.7009   25.5558 H   0  0  0  0  0  0  0  0  0  0  0  0
   19.4240   18.9415   26.0075 C   0  0  0  0  0  0  0  0  0  0  0  0
   19.4432   18.9279   27.1007 H   0  0  0  0  0  0  0  0  0  0  0  0
   18.6125   19.6023   25.6910 H   0  0  0  0  0  0  0  0  0  0  0  0
   19.1032   17.5304   25.5543 N   0  3  0  0  0  0  0  0  0  0  0  0
   19.8079   16.8594   25.8775 H   0  0  0  0  0  0  0  0  0  0  0  0
   19.0626   17.4588   24.5340 H   0  0  0  0  0  0  0  0  0  0  0  0
   18.1985   17.2111   25.9176 H   0  0  0  0  0  0  0  0  0  0  0  0
  1  2  1  0  0  0  0
  1  3  1  0  0  0  0
  1  4  1  0  0  0  0
  1  5  1  0  0  0  0
  5  6  1  0  0  0  0
  5  7  1  0  0  0  0
  5  8  1  0  0  0  0
  8  9  1  0  0  0  0
  8 10  1  0  0  0  0
  8 11  1  0  0  0  0
 11 12  1  0  0  0  0
 11 13  1  0  0  0  0
 11 14  1  0  0  0  0
 14 15  1  0  0  0  0
 14 16  1  0  0  0  0
 14 17  1  0  0  0  0
 17 18  1  0  0  0  0
 17 19  1  0  0  0  0
 17 20  1  0  0  0  0
 20 21  1  0  0  0  0
 20 22  1  0  0  0  0
 20 23  1  0  0  0  0
 23 24  1  0  0  0  0
 23 25  1  0  0  0  0
 23 26  1  0  0  0  0
M  END
> <VM2 Rank>
122

> <Conf_Id>
651

> <Probability>
0.02

> <Sum Probability>
99.45

> <Delta G>
3.570

> <G>
51.831

> <E>
19.223

> <-TS>
32.608

> <U+W>
-2.239

> <U>
51.693

> <W>
-53.932

> <W(PB)>
-56.176

> <W(SA)>
2.244

> <Valence>
4.261

> <Coulomb>
46.778

> <VdW>
0.653

> <VdW6>
-7.961

> <VdW12>
8.615

> <Bond>
0.225

> <Angle>
1.193

> <Pdih>
2.844

> <Idih>
0.000

> <Tether>
0.000

$$$$
VeraChem MOL file


 26 25  0  0  0  0  0  0  0  0999 V2000     
   19.3987   20.5645   20.6400 C   0  0  0  0  0  0  0  0  0  0  0  0
   20.1114   20.6069   19.8061 H   0  0  0  0  0  0  0  0  0  0  0  0
   18.3966   20.7603   20.2368 H   0  0  0  0  0  0  0  0  0  0  0  0
   19.6439   21.3732   21.3409 H   0  0  0  0  0  0  0  0  0  0  0  0
   19.4452   19.1904   21.3408 C   0  0  0  0  0  0  0  0  0  0  0  0
   19.1650   18.4058   20.6242 H   0  0  0  0  0  0  0  0  0  0  0  0
   18.6922   19.1717   22.1388 H   0  0  0  0  0  0  0  0  0  0  0  0
   20.8503   18.8914   21.9151 C   0  0  0  0  0  0  0  0  0  0  0  0
   21.5821   18.9417   21.0971 H   0  0  0  0  0  0  0  0  0  0  0  0
   21.1479   19.6734   22.6246 H   0  0  0  0  0  0  0  0  0  0  0  0
   20.9648   17.4975   22.5816 C   0  0  0  0  0  0  0  0  0  0  0  0
   22.0051   17.3468   22.9015 H   0  0  0  0  0  0  0  0  0  0  0  0
   20.7752   16.7287   21.8198 H   0  0  0  0  0  0  0  0  0  0  0  0
   20.0273   17.2337   23.7913 C   0  0  0  0  0  0  0  0  0  0  0  0
   18.9743   17.2648   23.4814 H   0  0  0  0  0  0  0  0  0  0  0  0
   20.2026   16.1999   24.1197 H   0  0  0  0  0  0  0  0  0  0  0  0
   20.2565   18.1638   25.0097 C   0  0  0  0  0  0  0  0  0  0  0  0
   21.3284   18.3695   25.1302 H   0  0  0  0  0  0  0  0  0  0  0  0
   19.9392   17.6333   25.9174 H   0  0  0  0  0  0  0  0  0  0  0  0
   19.4653   19.4834   24.9274 C   0  0  0  0  0  0  0  0  0  0  0  0
   19.7621   20.0484   24.0419 H   0  0  0  0  0  0  0  0  0  0  0  0
   18.3968   19.2651   24.8506 H   0  0  0  0  0  0  0  0  0  0  0  0
   19.6729   20.3742   26.1350 N   0  3  0  0  0  0  0  0  0  0  0  0
   19.1353   21.2450   26.0635 H   0  0  0  0  0  0  0  0  0  0  0  0
   20.6567   20.6390   26.2499 H   0  0  0  0  0  0  0  0  0  0  0  0
   19.3812   19.9141   27.0035 H   0  0  0  0  0  0  0  0  0  0  0  0
  1  2  1  0  0  0  0
  1  3  1  0  0  0  0
  1  4  1  0  0  0  0
  1  5  1  0  0  0  0
  5  6  1  0  0  0  0
  5  7  1  0  0  0  0
  5  8  1  0  0  0  0
  8  9  1  0  0  0  0
  8 10  1  0  0  0  0
  8 11  1  0  0  0  0
 11 12  1  0  0  0  0
 11 13  1  0  0  0  0
 11 14  1  0  0  0  0
 14 15  1  0  0  0  0
 14 16  1  0  0  0  0
 14 17  1  0  0  0  0
 17 18  1  0  0  0  0
 17 19  1  0  0  0  0
 17 20  1  0  0  0  0
 20 21  1  0  0  0  0
 20 22  1  0  0  0  0
 20 23  1  0  0  0  0
 23 24  1  0  0  0  0
 23 25  1  0  0  0  0
 23 26  1  0  0  0  0
M  END
> <VM2 Rank>
123

> <Conf_Id>
1488

> <Probability>
0.02

> <Sum Probability>
99.47

> <Delta G>
3.579

> <G>
51.840

> <E>
18.628

> <-TS>
33.212

> <U+W>
-2.834

> <U>
51.403

> <W>
-54.236

> <W(PB)>
-56.493

> <W(SA)>
2.256

> <Valence>
5.068

> <Coulomb>
46.079

> <VdW>
0.256

> <VdW6>
-8.819

> <VdW12>
9.075

> <Bond>
0.244

> <Angle>
1.725

> <Pdih>
3.099

> <Idih>
0.000

> <Tether>
0.000

$$$$
VeraChem MOL file


 26 25  0  0  0  0  0  0  0  0999 V2000     
   18.8651   20.2119   20.6224 C   0  0  0  0  0  0  0  0  0  0  0  0
   17.9935   20.2825   21.2861 H   0  0  0  0  0  0  0  0  0  0  0  0
   19.0956   21.2222   20.2602 H   0  0  0  0  0  0  0  0  0  0  0  0
   18.5861   19.5989   19.7555 H   0  0  0  0  0  0  0  0  0  0  0  0
   20.0777   19.6084   21.3619 C   0  0  0  0  0  0  0  0  0  0  0  0
   20.3522   20.2688   22.1942 H   0  0  0  0  0  0  0  0  0  0  0  0
   20.9416   19.5800   20.6833 H   0  0  0  0  0  0  0  0  0  0  0  0
   19.7767   18.1818   21.8792 C   0  0  0  0  0  0  0  0  0  0  0  0
   18.9085   18.1932   22.5498 H   0  0  0  0  0  0  0  0  0  0  0  0
   19.4824   17.5538   21.0270 H   0  0  0  0  0  0  0  0  0  0  0  0
   20.9824   17.5090   22.5822 C   0  0  0  0  0  0  0  0  0  0  0  0
   21.7987   17.4052   21.8540 H   0  0  0  0  0  0  0  0  0  0  0  0
   20.6996   16.4838   22.8578 H   0  0  0  0  0  0  0  0  0  0  0  0
   21.5349   18.2302   23.8418 C   0  0  0  0  0  0  0  0  0  0  0  0
   22.4015   17.6533   24.1933 H   0  0  0  0  0  0  0  0  0  0  0  0
   21.9323   19.2200   23.5805 H   0  0  0  0  0  0  0  0  0  0  0  0
   20.5335   18.3469   25.0190 C   0  0  0  0  0  0  0  0  0  0  0  0
   21.1029   18.4023   25.9564 H   0  0  0  0  0  0  0  0  0  0  0  0
   19.9198   17.4387   25.0828 H   0  0  0  0  0  0  0  0  0  0  0  0
   19.6336   19.5948   24.9331 C   0  0  0  0  0  0  0  0  0  0  0  0
   20.2557   20.4936   24.9134 H   0  0  0  0  0  0  0  0  0  0  0  0
   19.0398   19.5712   24.0176 H   0  0  0  0  0  0  0  0  0  0  0  0
   18.6770   19.7160   26.1015 N   0  3  0  0  0  0  0  0  0  0  0  0
   18.0902   20.5542   26.0285 H   0  0  0  0  0  0  0  0  0  0  0  0
   19.1734   19.7765   26.9966 H   0  0  0  0  0  0  0  0  0  0  0  0
   18.0436   18.9121   26.1618 H   0  0  0  0  0  0  0  0  0  0  0  0
  1  2  1  0  0  0  0
  1  3  1  0  0  0  0
  1  4  1  0  0  0  0
  1  5  1  0  0  0  0
  5  6  1  0  0  0  0
  5  7  1  0  0  0  0
  5  8  1  0  0  0  0
  8  9  1  0  0  0  0
  8 10  1  0  0  0  0
  8 11  1  0  0  0  0
 11 12  1  0  0  0  0
 11 13  1  0  0  0  0
 11 14  1  0  0  0  0
 14 15  1  0  0  0  0
 14 16  1  0  0  0  0
 14 17  1  0  0  0  0
 17 18  1  0  0  0  0
 17 19  1  0  0  0  0
 17 20  1  0  0  0  0
 20 21  1  0  0  0  0
 20 22  1  0  0  0  0
 20 23  1  0  0  0  0
 23 24  1  0  0  0  0
 23 25  1  0  0  0  0
 23 26  1  0  0  0  0
M  END
> <VM2 Rank>
124

> <Conf_Id>
973

> <Probability>
0.02

> <Sum Probability>
99.48

> <Delta G>
3.595

> <G>
51.856

> <E>
18.644

> <-TS>
33.212

> <U+W>
-2.818

> <U>
51.403

> <W>
-54.221

> <W(PB)>
-56.463

> <W(SA)>
2.243

> <Valence>
5.068

> <Coulomb>
46.079

> <VdW>
0.255

> <VdW6>
-8.819

> <VdW12>
9.075

> <Bond>
0.244

> <Angle>
1.724

> <Pdih>
3.100

> <Idih>
0.000

> <Tether>
0.000

$$$$
VeraChem MOL file


 26 25  0  0  0  0  0  0  0  0999 V2000     
   20.1980   18.7716   19.5948 C   0  0  0  0  0  0  0  0  0  0  0  0
   21.2329   19.0697   19.8042 H   0  0  0  0  0  0  0  0  0  0  0  0
   20.2180   18.0993   18.7273 H   0  0  0  0  0  0  0  0  0  0  0  0
   19.6317   19.6683   19.3116 H   0  0  0  0  0  0  0  0  0  0  0  0
   19.5528   18.0673   20.8099 C   0  0  0  0  0  0  0  0  0  0  0  0
   20.1555   17.1930   21.0930 H   0  0  0  0  0  0  0  0  0  0  0  0
   18.5690   17.6787   20.5119 H   0  0  0  0  0  0  0  0  0  0  0  0
   19.3695   18.9949   22.0354 C   0  0  0  0  0  0  0  0  0  0  0  0
   18.7477   19.8550   21.7512 H   0  0  0  0  0  0  0  0  0  0  0  0
   18.8002   18.4478   22.7955 H   0  0  0  0  0  0  0  0  0  0  0  0
   20.7094   19.4991   22.6312 C   0  0  0  0  0  0  0  0  0  0  0  0
   21.2071   20.1298   21.8829 H   0  0  0  0  0  0  0  0  0  0  0  0
   21.3873   18.6549   22.8178 H   0  0  0  0  0  0  0  0  0  0  0  0
   20.5372   20.3387   23.9240 C   0  0  0  0  0  0  0  0  0  0  0  0
   21.3337   21.0953   23.9496 H   0  0  0  0  0  0  0  0  0  0  0  0
   19.5939   20.9012   23.8899 H   0  0  0  0  0  0  0  0  0  0  0  0
   20.6267   19.5225   25.2381 C   0  0  0  0  0  0  0  0  0  0  0  0
   20.5730   20.2173   26.0868 H   0  0  0  0  0  0  0  0  0  0  0  0
   21.6079   19.0331   25.2991 H   0  0  0  0  0  0  0  0  0  0  0  0
   19.5190   18.4651   25.3892 C   0  0  0  0  0  0  0  0  0  0  0  0
   18.5393   18.9423   25.3006 H   0  0  0  0  0  0  0  0  0  0  0  0
   19.6145   17.7178   24.5975 H   0  0  0  0  0  0  0  0  0  0  0  0
   19.5683   17.7397   26.7183 N   0  3  0  0  0  0  0  0  0  0  0  0
   18.8240   17.0383   26.7977 H   0  0  0  0  0  0  0  0  0  0  0  0
   19.4576   18.3830   27.5090 H   0  0  0  0  0  0  0  0  0  0  0  0
   20.4578   17.2476   26.8522 H   0  0  0  0  0  0  0  0  0  0  0  0
  1  2  1  0  0  0  0
  1  3  1  0  0  0  0
  1  4  1  0  0  0  0
  1  5  1  0  0  0  0
  5  6  1  0  0  0  0
  5  7  1  0  0  0  0
  5  8  1  0  0  0  0
  8  9  1  0  0  0  0
  8 10  1  0  0  0  0
  8 11  1  0  0  0  0
 11 12  1  0  0  0  0
 11 13  1  0  0  0  0
 11 14  1  0  0  0  0
 14 15  1  0  0  0  0
 14 16  1  0  0  0  0
 14 17  1  0  0  0  0
 17 18  1  0  0  0  0
 17 19  1  0  0  0  0
 17 20  1  0  0  0  0
 20 21  1  0  0  0  0
 20 22  1  0  0  0  0
 20 23  1  0  0  0  0
 23 24  1  0  0  0  0
 23 25  1  0  0  0  0
 23 26  1  0  0  0  0
M  END
> <VM2 Rank>
125

> <Conf_Id>
148

> <Probability>
0.02

> <Sum Probability>
99.50

> <Delta G>
3.620

> <G>
51.881

> <E>
19.217

> <-TS>
32.665

> <U+W>
-2.245

> <U>
51.521

> <W>
-53.766

> <W(PB)>
-56.075

> <W(SA)>
2.309

> <Valence>
5.275

> <Coulomb>
45.448

> <VdW>
0.798

> <VdW6>
-7.889

> <VdW12>
8.686

> <Bond>
0.249

> <Angle>
1.289

> <Pdih>
3.738

> <Idih>
0.000

> <Tether>
0.000

$$$$
VeraChem MOL file


 26 25  0  0  0  0  0  0  0  0999 V2000     
   21.3736   19.7574   20.4325 C   0  0  0  0  0  0  0  0  0  0  0  0
   21.9757   19.7215   21.3486 H   0  0  0  0  0  0  0  0  0  0  0  0
   22.0617   19.6625   19.5825 H   0  0  0  0  0  0  0  0  0  0  0  0
   20.8984   20.7450   20.3707 H   0  0  0  0  0  0  0  0  0  0  0  0
   20.3174   18.6294   20.4011 C   0  0  0  0  0  0  0  0  0  0  0  0
   20.8149   17.6543   20.4984 H   0  0  0  0  0  0  0  0  0  0  0  0
   19.8303   18.6286   19.4160 H   0  0  0  0  0  0  0  0  0  0  0  0
   19.2290   18.7733   21.4922 C   0  0  0  0  0  0  0  0  0  0  0  0
   18.7207   19.7407   21.3781 H   0  0  0  0  0  0  0  0  0  0  0  0
   18.4652   18.0013   21.3248 H   0  0  0  0  0  0  0  0  0  0  0  0
   19.7783   18.6388   22.9327 C   0  0  0  0  0  0  0  0  0  0  0  0
   20.4915   19.4493   23.1210 H   0  0  0  0  0  0  0  0  0  0  0  0
   20.3226   17.6892   23.0288 H   0  0  0  0  0  0  0  0  0  0  0  0
   18.6452   18.6982   23.9845 C   0  0  0  0  0  0  0  0  0  0  0  0
   18.1747   19.6909   23.9596 H   0  0  0  0  0  0  0  0  0  0  0  0
   17.8611   17.9808   23.7052 H   0  0  0  0  0  0  0  0  0  0  0  0
   19.0965   18.3775   25.4325 C   0  0  0  0  0  0  0  0  0  0  0  0
   19.5079   17.3609   25.4884 H   0  0  0  0  0  0  0  0  0  0  0  0
   18.2029   18.3762   26.0706 H   0  0  0  0  0  0  0  0  0  0  0  0
   20.0989   19.3868   26.0298 C   0  0  0  0  0  0  0  0  0  0  0  0
   19.8262   20.4024   25.7306 H   0  0  0  0  0  0  0  0  0  0  0  0
   20.0528   19.3309   27.1208 H   0  0  0  0  0  0  0  0  0  0  0  0
   21.5419   19.1376   25.6359 N   0  3  0  0  0  0  0  0  0  0  0  0
   21.6713   19.1773   24.6212 H   0  0  0  0  0  0  0  0  0  0  0  0
   21.8657   18.2159   25.9469 H   0  0  0  0  0  0  0  0  0  0  0  0
   22.1741   19.8313   26.0501 H   0  0  0  0  0  0  0  0  0  0  0  0
  1  2  1  0  0  0  0
  1  3  1  0  0  0  0
  1  4  1  0  0  0  0
  1  5  1  0  0  0  0
  5  6  1  0  0  0  0
  5  7  1  0  0  0  0
  5  8  1  0  0  0  0
  8  9  1  0  0  0  0
  8 10  1  0  0  0  0
  8 11  1  0  0  0  0
 11 12  1  0  0  0  0
 11 13  1  0  0  0  0
 11 14  1  0  0  0  0
 14 15  1  0  0  0  0
 14 16  1  0  0  0  0
 14 17  1  0  0  0  0
 17 18  1  0  0  0  0
 17 19  1  0  0  0  0
 17 20  1  0  0  0  0
 20 21  1  0  0  0  0
 20 22  1  0  0  0  0
 20 23  1  0  0  0  0
 23 24  1  0  0  0  0
 23 25  1  0  0  0  0
 23 26  1  0  0  0  0
M  END
> <VM2 Rank>
126

> <Conf_Id>
715

> <Probability>
0.02

> <Sum Probability>
99.52

> <Delta G>
3.625

> <G>
51.886

> <E>
19.277

> <-TS>
32.609

> <U+W>
-2.185

> <U>
51.693

> <W>
-53.878

> <W(PB)>
-56.145

> <W(SA)>
2.268

> <Valence>
4.262

> <Coulomb>
46.777

> <VdW>
0.653

> <VdW6>
-7.961

> <VdW12>
8.615

> <Bond>
0.225

> <Angle>
1.192

> <Pdih>
2.845

> <Idih>
0.000

> <Tether>
0.000

$$$$
VeraChem MOL file


 26 25  0  0  0  0  0  0  0  0999 V2000     
   20.2491   18.8052   19.5965 C   0  0  0  0  0  0  0  0  0  0  0  0
   19.5588   17.9661   19.7483 H   0  0  0  0  0  0  0  0  0  0  0  0
   19.6615   19.6879   19.3125 H   0  0  0  0  0  0  0  0  0  0  0  0
   20.8990   18.5482   18.7501 H   0  0  0  0  0  0  0  0  0  0  0  0
   21.0929   19.0825   20.8614 C   0  0  0  0  0  0  0  0  0  0  0  0
   21.8504   19.8417   20.6216 H   0  0  0  0  0  0  0  0  0  0  0  0
   21.6457   18.1753   21.1429 H   0  0  0  0  0  0  0  0  0  0  0  0
   20.2561   19.5794   22.0650 C   0  0  0  0  0  0  0  0  0  0  0  0
   20.9469   19.8630   22.8672 H   0  0  0  0  0  0  0  0  0  0  0  0
   19.7239   20.4985   21.7837 H   0  0  0  0  0  0  0  0  0  0  0  0
   19.2387   18.5296   22.5821 C   0  0  0  0  0  0  0  0  0  0  0  0
   19.7388   17.5682   22.7629 H   0  0  0  0  0  0  0  0  0  0  0  0
   18.4988   18.3444   21.7924 H   0  0  0  0  0  0  0  0  0  0  0  0
   18.4752   18.9795   23.8551 C   0  0  0  0  0  0  0  0  0  0  0  0
   18.3311   20.0688   23.8477 H   0  0  0  0  0  0  0  0  0  0  0  0
   17.4661   18.5459   23.8204 H   0  0  0  0  0  0  0  0  0  0  0  0
   19.1284   18.5349   25.1881 C   0  0  0  0  0  0  0  0  0  0  0  0
   19.1891   17.4389   25.2184 H   0  0  0  0  0  0  0  0  0  0  0  0
   18.4719   18.8325   26.0167 H   0  0  0  0  0  0  0  0  0  0  0  0
   20.5278   19.1302   25.4229 C   0  0  0  0  0  0  0  0  0  0  0  0
   21.2134   18.7718   24.6509 H   0  0  0  0  0  0  0  0  0  0  0  0
   20.4789   20.2209   25.3654 H   0  0  0  0  0  0  0  0  0  0  0  0
   21.1128   18.7576   26.7698 N   0  3  0  0  0  0  0  0  0  0  0  0
   22.0458   19.1620   26.9052 H   0  0  0  0  0  0  0  0  0  0  0  0
   21.2089   17.7425   26.8771 H   0  0  0  0  0  0  0  0  0  0  0  0
   20.5289   19.0890   27.5447 H   0  0  0  0  0  0  0  0  0  0  0  0
  1  2  1  0  0  0  0
  1  3  1  0  0  0  0
  1  4  1  0  0  0  0
  1  5  1  0  0  0  0
  5  6  1  0  0  0  0
  5  7  1  0  0  0  0
  5  8  1  0  0  0  0
  8  9  1  0  0  0  0
  8 10  1  0  0  0  0
  8 11  1  0  0  0  0
 11 12  1  0  0  0  0
 11 13  1  0  0  0  0
 11 14  1  0  0  0  0
 14 15  1  0  0  0  0
 14 16  1  0  0  0  0
 14 17  1  0  0  0  0
 17 18  1  0  0  0  0
 17 19  1  0  0  0  0
 17 20  1  0  0  0  0
 20 21  1  0  0  0  0
 20 22  1  0  0  0  0
 20 23  1  0  0  0  0
 23 24  1  0  0  0  0
 23 25  1  0  0  0  0
 23 26  1  0  0  0  0
M  END
> <VM2 Rank>
127

> <Conf_Id>
997

> <Probability>
0.02

> <Sum Probability>
99.53

> <Delta G>
3.639

> <G>
51.900

> <E>
19.235

> <-TS>
32.665

> <U+W>
-2.226

> <U>
51.521

> <W>
-53.747

> <W(PB)>
-56.043

> <W(SA)>
2.296

> <Valence>
5.275

> <Coulomb>
45.448

> <VdW>
0.798

> <VdW6>
-7.889

> <VdW12>
8.687

> <Bond>
0.249

> <Angle>
1.289

> <Pdih>
3.738

> <Idih>
0.000

> <Tether>
0.000

$$$$
VeraChem MOL file


 26 25  0  0  0  0  0  0  0  0999 V2000     
   20.1333   19.5123   19.6622 C   0  0  0  0  0  0  0  0  0  0  0  0
   20.6431   19.4457   18.6924 H   0  0  0  0  0  0  0  0  0  0  0  0
   19.2033   18.9362   19.5844 H   0  0  0  0  0  0  0  0  0  0  0  0
   19.8730   20.5651   19.8323 H   0  0  0  0  0  0  0  0  0  0  0  0
   21.0452   18.9760   20.7893 C   0  0  0  0  0  0  0  0  0  0  0  0
   22.0100   19.4999   20.7389 H   0  0  0  0  0  0  0  0  0  0  0  0
   21.2638   17.9130   20.6159 H   0  0  0  0  0  0  0  0  0  0  0  0
   20.4537   19.1658   22.2073 C   0  0  0  0  0  0  0  0  0  0  0  0
   21.2339   18.9006   22.9316 H   0  0  0  0  0  0  0  0  0  0  0  0
   20.2174   20.2266   22.3679 H   0  0  0  0  0  0  0  0  0  0  0  0
   19.1984   18.2983   22.4742 C   0  0  0  0  0  0  0  0  0  0  0  0
   19.4670   17.2360   22.3942 H   0  0  0  0  0  0  0  0  0  0  0  0
   18.4515   18.4837   21.6919 H   0  0  0  0  0  0  0  0  0  0  0  0
   18.5176   18.5559   23.8438 C   0  0  0  0  0  0  0  0  0  0  0  0
   18.1440   19.5883   23.8909 H   0  0  0  0  0  0  0  0  0  0  0  0
   17.6263   17.9153   23.8955 H   0  0  0  0  0  0  0  0  0  0  0  0
   19.4002   18.2539   25.0811 C   0  0  0  0  0  0  0  0  0  0  0  0
   20.0491   17.3909   24.8811 H   0  0  0  0  0  0  0  0  0  0  0  0
   18.7465   17.9636   25.9144 H   0  0  0  0  0  0  0  0  0  0  0  0
   20.2401   19.4647   25.5327 C   0  0  0  0  0  0  0  0  0  0  0  0
   20.9053   19.7861   24.7292 H   0  0  0  0  0  0  0  0  0  0  0  0
   19.5768   20.2981   25.7794 H   0  0  0  0  0  0  0  0  0  0  0  0
   21.0925   19.1720   26.7504 N   0  3  0  0  0  0  0  0  0  0  0  0
   20.5236   18.8951   27.5571 H   0  0  0  0  0  0  0  0  0  0  0  0
   21.6398   19.9905   27.0384 H   0  0  0  0  0  0  0  0  0  0  0  0
   21.7593   18.4129   26.5768 H   0  0  0  0  0  0  0  0  0  0  0  0
  1  2  1  0  0  0  0
  1  3  1  0  0  0  0
  1  4  1  0  0  0  0
  1  5  1  0  0  0  0
  5  6  1  0  0  0  0
  5  7  1  0  0  0  0
  5  8  1  0  0  0  0
  8  9  1  0  0  0  0
  8 10  1  0  0  0  0
  8 11  1  0  0  0  0
 11 12  1  0  0  0  0
 11 13  1  0  0  0  0
 11 14  1  0  0  0  0
 14 15  1  0  0  0  0
 14 16  1  0  0  0  0
 14 17  1  0  0  0  0
 17 18  1  0  0  0  0
 17 19  1  0  0  0  0
 17 20  1  0  0  0  0
 20 21  1  0  0  0  0
 20 22  1  0  0  0  0
 20 23  1  0  0  0  0
 23 24  1  0  0  0  0
 23 25  1  0  0  0  0
 23 26  1  0  0  0  0
M  END
> <VM2 Rank>
128

> <Conf_Id>
1557

> <Probability>
0.02

> <Sum Probability>
99.55

> <Delta G>
3.640

> <G>
51.901

> <E>
19.155

> <-TS>
32.746

> <U+W>
-2.307

> <U>
51.609

> <W>
-53.916

> <W(PB)>
-56.225

> <W(SA)>
2.309

> <Valence>
5.204

> <Coulomb>
45.645

> <VdW>
0.760

> <VdW6>
-7.997

> <VdW12>
8.757

> <Bond>
0.240

> <Angle>
1.456

> <Pdih>
3.508

> <Idih>
0.000

> <Tether>
0.000

$$$$
VeraChem MOL file


 26 25  0  0  0  0  0  0  0  0999 V2000     
   19.5911   19.1550   19.6441 C   0  0  0  0  0  0  0  0  0  0  0  0
   19.4970   18.6904   18.6541 H   0  0  0  0  0  0  0  0  0  0  0  0
   18.7187   19.8041   19.7939 H   0  0  0  0  0  0  0  0  0  0  0  0
   20.4894   19.7841   19.6273 H   0  0  0  0  0  0  0  0  0  0  0  0
   19.6730   18.0713   20.7434 C   0  0  0  0  0  0  0  0  0  0  0  0
   20.5714   17.4565   20.5926 H   0  0  0  0  0  0  0  0  0  0  0  0
   18.8151   17.3934   20.6321 H   0  0  0  0  0  0  0  0  0  0  0  0
   19.6652   18.6457   22.1809 C   0  0  0  0  0  0  0  0  0  0  0  0
   18.7762   19.2762   22.3198 H   0  0  0  0  0  0  0  0  0  0  0  0
   19.5685   17.8023   22.8759 H   0  0  0  0  0  0  0  0  0  0  0  0
   20.9426   19.4482   22.5325 C   0  0  0  0  0  0  0  0  0  0  0  0
   21.1023   20.2312   21.7805 H   0  0  0  0  0  0  0  0  0  0  0  0
   21.8164   18.7850   22.4728 H   0  0  0  0  0  0  0  0  0  0  0  0
   20.9097   20.1332   23.9236 C   0  0  0  0  0  0  0  0  0  0  0  0
   21.8458   20.6975   24.0364 H   0  0  0  0  0  0  0  0  0  0  0  0
   20.1061   20.8820   23.9564 H   0  0  0  0  0  0  0  0  0  0  0  0
   20.7827   19.1656   25.1273 C   0  0  0  0  0  0  0  0  0  0  0  0
   21.2672   19.6261   25.9987 H   0  0  0  0  0  0  0  0  0  0  0  0
   21.3299   18.2355   24.9241 H   0  0  0  0  0  0  0  0  0  0  0  0
   19.3197   18.8577   25.5019 C   0  0  0  0  0  0  0  0  0  0  0  0
   18.8032   19.7880   25.7533 H   0  0  0  0  0  0  0  0  0  0  0  0
   18.8008   18.3979   24.6588 H   0  0  0  0  0  0  0  0  0  0  0  0
   19.1970   17.9223   26.6872 N   0  3  0  0  0  0  0  0  0  0  0  0
   18.2169   17.7336   26.9240 H   0  0  0  0  0  0  0  0  0  0  0  0
   19.6371   18.3111   27.5276 H   0  0  0  0  0  0  0  0  0  0  0  0
   19.6405   17.0158   26.5064 H   0  0  0  0  0  0  0  0  0  0  0  0
  1  2  1  0  0  0  0
  1  3  1  0  0  0  0
  1  4  1  0  0  0  0
  1  5  1  0  0  0  0
  5  6  1  0  0  0  0
  5  7  1  0  0  0  0
  5  8  1  0  0  0  0
  8  9  1  0  0  0  0
  8 10  1  0  0  0  0
  8 11  1  0  0  0  0
 11 12  1  0  0  0  0
 11 13  1  0  0  0  0
 11 14  1  0  0  0  0
 14 15  1  0  0  0  0
 14 16  1  0  0  0  0
 14 17  1  0  0  0  0
 17 18  1  0  0  0  0
 17 19  1  0  0  0  0
 17 20  1  0  0  0  0
 20 21  1  0  0  0  0
 20 22  1  0  0  0  0
 20 23  1  0  0  0  0
 23 24  1  0  0  0  0
 23 25  1  0  0  0  0
 23 26  1  0  0  0  0
M  END
> <VM2 Rank>
129

> <Conf_Id>
951

> <Probability>
0.02

> <Sum Probability>
99.56

> <Delta G>
3.646

> <G>
51.907

> <E>
19.162

> <-TS>
32.745

> <U+W>
-2.300

> <U>
51.609

> <W>
-53.909

> <W(PB)>
-56.178

> <W(SA)>
2.270

> <Valence>
5.204

> <Coulomb>
45.645

> <VdW>
0.760

> <VdW6>
-7.997

> <VdW12>
8.757

> <Bond>
0.240

> <Angle>
1.456

> <Pdih>
3.507

> <Idih>
0.000

> <Tether>
0.000

$$$$
VeraChem MOL file


 26 25  0  0  0  0  0  0  0  0999 V2000     
   20.3766   20.2981   19.9948 C   0  0  0  0  0  0  0  0  0  0  0  0
   19.7613   19.9542   19.1532 H   0  0  0  0  0  0  0  0  0  0  0  0
   19.8665   21.1481   20.4665 H   0  0  0  0  0  0  0  0  0  0  0  0
   21.3301   20.6602   19.5890 H   0  0  0  0  0  0  0  0  0  0  0  0
   20.6134   19.1607   21.0107 C   0  0  0  0  0  0  0  0  0  0  0  0
   21.2659   19.5261   21.8126 H   0  0  0  0  0  0  0  0  0  0  0  0
   21.1547   18.3416   20.5169 H   0  0  0  0  0  0  0  0  0  0  0  0
   19.2808   18.6261   21.5888 C   0  0  0  0  0  0  0  0  0  0  0  0
   18.7000   19.4453   22.0344 H   0  0  0  0  0  0  0  0  0  0  0  0
   18.6759   18.2456   20.7540 H   0  0  0  0  0  0  0  0  0  0  0  0
   19.4677   17.4821   22.6194 C   0  0  0  0  0  0  0  0  0  0  0  0
   20.3803   16.9124   22.3963 H   0  0  0  0  0  0  0  0  0  0  0  0
   18.6387   16.7717   22.4949 H   0  0  0  0  0  0  0  0  0  0  0  0
   19.4711   17.9382   24.1014 C   0  0  0  0  0  0  0  0  0  0  0  0
   18.5086   18.4138   24.3330 H   0  0  0  0  0  0  0  0  0  0  0  0
   19.5324   17.0437   24.7368 H   0  0  0  0  0  0  0  0  0  0  0  0
   20.6298   18.8955   24.4709 C   0  0  0  0  0  0  0  0  0  0  0  0
   20.5057   19.8567   23.9565 H   0  0  0  0  0  0  0  0  0  0  0  0
   21.5809   18.4675   24.1277 H   0  0  0  0  0  0  0  0  0  0  0  0
   20.7271   19.1485   25.9876 C   0  0  0  0  0  0  0  0  0  0  0  0
   20.8516   18.1973   26.5121 H   0  0  0  0  0  0  0  0  0  0  0  0
   21.6019   19.7702   26.1967 H   0  0  0  0  0  0  0  0  0  0  0  0
   19.5145   19.8498   26.5674 N   0  3  0  0  0  0  0  0  0  0  0  0
   18.6596   19.3005   26.4353 H   0  0  0  0  0  0  0  0  0  0  0  0
   19.3583   20.7641   26.1307 H   0  0  0  0  0  0  0  0  0  0  0  0
   19.6144   20.0123   27.5753 H   0  0  0  0  0  0  0  0  0  0  0  0
  1  2  1  0  0  0  0
  1  3  1  0  0  0  0
  1  4  1  0  0  0  0
  1  5  1  0  0  0  0
  5  6  1  0  0  0  0
  5  7  1  0  0  0  0
  5  8  1  0  0  0  0
  8  9  1  0  0  0  0
  8 10  1  0  0  0  0
  8 11  1  0  0  0  0
 11 12  1  0  0  0  0
 11 13  1  0  0  0  0
 11 14  1  0  0  0  0
 14 15  1  0  0  0  0
 14 16  1  0  0  0  0
 14 17  1  0  0  0  0
 17 18  1  0  0  0  0
 17 19  1  0  0  0  0
 17 20  1  0  0  0  0
 20 21  1  0  0  0  0
 20 22  1  0  0  0  0
 20 23  1  0  0  0  0
 23 24  1  0  0  0  0
 23 25  1  0  0  0  0
 23 26  1  0  0  0  0
M  END
> <VM2 Rank>
130

> <Conf_Id>
1050

> <Probability>
0.02

> <Sum Probability>
99.58

> <Delta G>
3.650

> <G>
51.911

> <E>
19.080

> <-TS>
32.831

> <U+W>
-2.382

> <U>
51.463

> <W>
-53.845

> <W(PB)>
-56.121

> <W(SA)>
2.276

> <Valence>
5.277

> <Coulomb>
45.445

> <VdW>
0.741

> <VdW6>
-7.943

> <VdW12>
8.684

> <Bond>
0.235

> <Angle>
1.187

> <Pdih>
3.855

> <Idih>
0.000

> <Tether>
0.000

$$$$
VeraChem MOL file


 26 25  0  0  0  0  0  0  0  0999 V2000     
   19.1745   20.3012   20.7341 C   0  0  0  0  0  0  0  0  0  0  0  0
   19.9015   21.0524   20.3989 H   0  0  0  0  0  0  0  0  0  0  0  0
   18.2478   20.4593   20.1675 H   0  0  0  0  0  0  0  0  0  0  0  0
   18.9543   20.4930   21.7899 H   0  0  0  0  0  0  0  0  0  0  0  0
   19.7129   18.8702   20.5012 C   0  0  0  0  0  0  0  0  0  0  0  0
   19.8828   18.7445   19.4227 H   0  0  0  0  0  0  0  0  0  0  0  0
   18.9522   18.1262   20.7757 H   0  0  0  0  0  0  0  0  0  0  0  0
   21.0418   18.5827   21.2466 C   0  0  0  0  0  0  0  0  0  0  0  0
   21.6524   17.9238   20.6138 H   0  0  0  0  0  0  0  0  0  0  0  0
   21.6235   19.5081   21.3570 H   0  0  0  0  0  0  0  0  0  0  0  0
   20.8801   17.8868   22.6229 C   0  0  0  0  0  0  0  0  0  0  0  0
   21.8824   17.6724   23.0187 H   0  0  0  0  0  0  0  0  0  0  0  0
   20.3917   16.9125   22.4835 H   0  0  0  0  0  0  0  0  0  0  0  0
   20.0931   18.7120   23.6671 C   0  0  0  0  0  0  0  0  0  0  0  0
   20.5206   19.7216   23.7286 H   0  0  0  0  0  0  0  0  0  0  0  0
   19.0499   18.8178   23.3423 H   0  0  0  0  0  0  0  0  0  0  0  0
   20.1172   18.0435   25.0620 C   0  0  0  0  0  0  0  0  0  0  0  0
   21.1512   17.9588   25.4219 H   0  0  0  0  0  0  0  0  0  0  0  0
   19.7286   17.0195   24.9809 H   0  0  0  0  0  0  0  0  0  0  0  0
   19.2722   18.8051   26.1012 C   0  0  0  0  0  0  0  0  0  0  0  0
   18.2430   18.8961   25.7436 H   0  0  0  0  0  0  0  0  0  0  0  0
   19.2588   18.2438   27.0394 H   0  0  0  0  0  0  0  0  0  0  0  0
   19.7893   20.1974   26.4060 N   0  3  0  0  0  0  0  0  0  0  0  0
   19.2128   20.6719   27.1095 H   0  0  0  0  0  0  0  0  0  0  0  0
   19.7943   20.7918   25.5714 H   0  0  0  0  0  0  0  0  0  0  0  0
   20.7477   20.1762   26.7693 H   0  0  0  0  0  0  0  0  0  0  0  0
  1  2  1  0  0  0  0
  1  3  1  0  0  0  0
  1  4  1  0  0  0  0
  1  5  1  0  0  0  0
  5  6  1  0  0  0  0
  5  7  1  0  0  0  0
  5  8  1  0  0  0  0
  8  9  1  0  0  0  0
  8 10  1  0  0  0  0
  8 11  1  0  0  0  0
 11 12  1  0  0  0  0
 11 13  1  0  0  0  0
 11 14  1  0  0  0  0
 14 15  1  0  0  0  0
 14 16  1  0  0  0  0
 14 17  1  0  0  0  0
 17 18  1  0  0  0  0
 17 19  1  0  0  0  0
 17 20  1  0  0  0  0
 20 21  1  0  0  0  0
 20 22  1  0  0  0  0
 20 23  1  0  0  0  0
 23 24  1  0  0  0  0
 23 25  1  0  0  0  0
 23 26  1  0  0  0  0
M  END
> <VM2 Rank>
131

> <Conf_Id>
1350

> <Probability>
0.01

> <Sum Probability>
99.60

> <Delta G>
3.692

> <G>
51.953

> <E>
19.155

> <-TS>
32.798

> <U+W>
-2.307

> <U>
51.512

> <W>
-53.819

> <W(PB)>
-56.098

> <W(SA)>
2.279

> <Valence>
5.253

> <Coulomb>
45.470

> <VdW>
0.789

> <VdW6>
-7.872

> <VdW12>
8.661

> <Bond>
0.233

> <Angle>
1.235

> <Pdih>
3.785

> <Idih>
0.000

> <Tether>
0.000

$$$$
VeraChem MOL file


 26 25  0  0  0  0  0  0  0  0999 V2000     
   18.5401   18.5283   20.9259 C   0  0  0  0  0  0  0  0  0  0  0  0
   18.6207   17.8162   21.7563 H   0  0  0  0  0  0  0  0  0  0  0  0
   18.0547   19.4419   21.2926 H   0  0  0  0  0  0  0  0  0  0  0  0
   17.8821   18.0780   20.1715 H   0  0  0  0  0  0  0  0  0  0  0  0
   19.9250   18.8387   20.3172 C   0  0  0  0  0  0  0  0  0  0  0  0
   19.7819   19.4133   19.3915 H   0  0  0  0  0  0  0  0  0  0  0  0
   20.4108   17.8989   20.0196 H   0  0  0  0  0  0  0  0  0  0  0  0
   20.8692   19.6385   21.2509 C   0  0  0  0  0  0  0  0  0  0  0  0
   21.7941   19.8383   20.6922 H   0  0  0  0  0  0  0  0  0  0  0  0
   20.4373   20.6246   21.4699 H   0  0  0  0  0  0  0  0  0  0  0  0
   21.2482   18.9115   22.5675 C   0  0  0  0  0  0  0  0  0  0  0  0
   22.2882   19.1640   22.8166 H   0  0  0  0  0  0  0  0  0  0  0  0
   21.2279   17.8235   22.4159 H   0  0  0  0  0  0  0  0  0  0  0  0
   20.3547   19.3070   23.7686 C   0  0  0  0  0  0  0  0  0  0  0  0
   20.4389   20.3885   23.9438 H   0  0  0  0  0  0  0  0  0  0  0  0
   19.3024   19.1086   23.5371 H   0  0  0  0  0  0  0  0  0  0  0  0
   20.7568   18.5475   25.0550 C   0  0  0  0  0  0  0  0  0  0  0  0
   21.8184   18.7300   25.2684 H   0  0  0  0  0  0  0  0  0  0  0  0
   20.6495   17.4654   24.9020 H   0  0  0  0  0  0  0  0  0  0  0  0
   19.9317   18.9775   26.2833 C   0  0  0  0  0  0  0  0  0  0  0  0
   20.3171   18.4728   27.1734 H   0  0  0  0  0  0  0  0  0  0  0  0
   20.0299   20.0560   26.4335 H   0  0  0  0  0  0  0  0  0  0  0  0
   18.4554   18.6501   26.1726 N   0  3  0  0  0  0  0  0  0  0  0  0
   18.0200   19.1241   25.3754 H   0  0  0  0  0  0  0  0  0  0  0  0
   17.9385   18.9364   27.0111 H   0  0  0  0  0  0  0  0  0  0  0  0
   18.2967   17.6444   26.0520 H   0  0  0  0  0  0  0  0  0  0  0  0
  1  2  1  0  0  0  0
  1  3  1  0  0  0  0
  1  4  1  0  0  0  0
  1  5  1  0  0  0  0
  5  6  1  0  0  0  0
  5  7  1  0  0  0  0
  5  8  1  0  0  0  0
  8  9  1  0  0  0  0
  8 10  1  0  0  0  0
  8 11  1  0  0  0  0
 11 12  1  0  0  0  0
 11 13  1  0  0  0  0
 11 14  1  0  0  0  0
 14 15  1  0  0  0  0
 14 16  1  0  0  0  0
 14 17  1  0  0  0  0
 17 18  1  0  0  0  0
 17 19  1  0  0  0  0
 17 20  1  0  0  0  0
 20 21  1  0  0  0  0
 20 22  1  0  0  0  0
 20 23  1  0  0  0  0
 23 24  1  0  0  0  0
 23 25  1  0  0  0  0
 23 26  1  0  0  0  0
M  END
> <VM2 Rank>
132

> <Conf_Id>
817

> <Probability>
0.01

> <Sum Probability>
99.61

> <Delta G>
3.699

> <G>
51.961

> <E>
19.144

> <-TS>
32.816

> <U+W>
-2.318

> <U>
51.663

> <W>
-53.981

> <W(PB)>
-56.239

> <W(SA)>
2.258

> <Valence>
5.225

> <Coulomb>
45.676

> <VdW>
0.762

> <VdW6>
-7.909

> <VdW12>
8.671

> <Bond>
0.235

> <Angle>
1.177

> <Pdih>
3.813

> <Idih>
0.000

> <Tether>
0.000

$$$$
VeraChem MOL file


 26 25  0  0  0  0  0  0  0  0999 V2000     
   19.7692   20.1796   20.1830 C   0  0  0  0  0  0  0  0  0  0  0  0
   19.0049   19.7828   19.5023 H   0  0  0  0  0  0  0  0  0  0  0  0
   19.2570   20.6176   21.0465 H   0  0  0  0  0  0  0  0  0  0  0  0
   20.2911   20.9914   19.6600 H   0  0  0  0  0  0  0  0  0  0  0  0
   20.7679   19.0735   20.5965 C   0  0  0  0  0  0  0  0  0  0  0  0
   21.5649   19.4941   21.2253 H   0  0  0  0  0  0  0  0  0  0  0  0
   21.2629   18.7080   19.6858 H   0  0  0  0  0  0  0  0  0  0  0  0
   20.0969   17.8709   21.3091 C   0  0  0  0  0  0  0  0  0  0  0  0
   19.0689   17.7381   20.9450 H   0  0  0  0  0  0  0  0  0  0  0  0
   20.6341   16.9582   21.0163 H   0  0  0  0  0  0  0  0  0  0  0  0
   20.1103   17.9416   22.8580 C   0  0  0  0  0  0  0  0  0  0  0  0
   21.1513   17.9726   23.2066 H   0  0  0  0  0  0  0  0  0  0  0  0
   19.6840   17.0069   23.2476 H   0  0  0  0  0  0  0  0  0  0  0  0
   19.3235   19.1374   23.4478 C   0  0  0  0  0  0  0  0  0  0  0  0
   19.8318   20.0775   23.1963 H   0  0  0  0  0  0  0  0  0  0  0  0
   18.3274   19.1801   22.9863 H   0  0  0  0  0  0  0  0  0  0  0  0
   19.1576   19.0527   24.9832 C   0  0  0  0  0  0  0  0  0  0  0  0
   18.6179   18.1332   25.2462 H   0  0  0  0  0  0  0  0  0  0  0  0
   18.5341   19.8909   25.3216 H   0  0  0  0  0  0  0  0  0  0  0  0
   20.5049   19.0933   25.7285 C   0  0  0  0  0  0  0  0  0  0  0  0
   21.1188   18.2398   25.4293 H   0  0  0  0  0  0  0  0  0  0  0  0
   21.0407   20.0106   25.4702 H   0  0  0  0  0  0  0  0  0  0  0  0
   20.3506   19.0498   27.2350 N   0  3  0  0  0  0  0  0  0  0  0  0
   21.2584   19.0777   27.7120 H   0  0  0  0  0  0  0  0  0  0  0  0
   19.8761   18.1958   27.5460 H   0  0  0  0  0  0  0  0  0  0  0  0
   19.8046   19.8434   27.5862 H   0  0  0  0  0  0  0  0  0  0  0  0
  1  2  1  0  0  0  0
  1  3  1  0  0  0  0
  1  4  1  0  0  0  0
  1  5  1  0  0  0  0
  5  6  1  0  0  0  0
  5  7  1  0  0  0  0
  5  8  1  0  0  0  0
  8  9  1  0  0  0  0
  8 10  1  0  0  0  0
  8 11  1  0  0  0  0
 11 12  1  0  0  0  0
 11 13  1  0  0  0  0
 11 14  1  0  0  0  0
 14 15  1  0  0  0  0
 14 16  1  0  0  0  0
 14 17  1  0  0  0  0
 17 18  1  0  0  0  0
 17 19  1  0  0  0  0
 17 20  1  0  0  0  0
 20 21  1  0  0  0  0
 20 22  1  0  0  0  0
 20 23  1  0  0  0  0
 23 24  1  0  0  0  0
 23 25  1  0  0  0  0
 23 26  1  0  0  0  0
M  END
> <VM2 Rank>
133

> <Conf_Id>
1592

> <Probability>
0.01

> <Sum Probability>
99.62

> <Delta G>
3.715

> <G>
51.976

> <E>
19.186

> <-TS>
32.790

> <U+W>
-2.276

> <U>
51.296

> <W>
-53.572

> <W(PB)>
-55.840

> <W(SA)>
2.268

> <Valence>
5.428

> <Coulomb>
45.118

> <VdW>
0.751

> <VdW6>
-7.913

> <VdW12>
8.664

> <Bond>
0.235

> <Angle>
1.292

> <Pdih>
3.901

> <Idih>
0.000

> <Tether>
0.000

$$$$
VeraChem MOL file


 26 25  0  0  0  0  0  0  0  0999 V2000     
   20.6658   20.0037   19.8195 C   0  0  0  0  0  0  0  0  0  0  0  0
   20.1960   20.9466   20.1283 H   0  0  0  0  0  0  0  0  0  0  0  0
   21.6802   20.2321   19.4674 H   0  0  0  0  0  0  0  0  0  0  0  0
   20.0976   19.6003   18.9711 H   0  0  0  0  0  0  0  0  0  0  0  0
   20.7084   18.9967   20.9882 C   0  0  0  0  0  0  0  0  0  0  0  0
   21.3185   19.4125   21.7991 H   0  0  0  0  0  0  0  0  0  0  0  0
   21.2144   18.0791   20.6568 H   0  0  0  0  0  0  0  0  0  0  0  0
   19.2873   18.6497   21.4941 C   0  0  0  0  0  0  0  0  0  0  0  0
   18.7424   19.5642   21.7659 H   0  0  0  0  0  0  0  0  0  0  0  0
   18.7288   18.2015   20.6607 H   0  0  0  0  0  0  0  0  0  0  0  0
   19.2819   17.6519   22.6816 C   0  0  0  0  0  0  0  0  0  0  0  0
   20.1684   17.0041   22.6396 H   0  0  0  0  0  0  0  0  0  0  0  0
   18.4203   16.9809   22.5601 H   0  0  0  0  0  0  0  0  0  0  0  0
   19.1675   18.3081   24.0820 C   0  0  0  0  0  0  0  0  0  0  0  0
   18.2221   18.8643   24.1474 H   0  0  0  0  0  0  0  0  0  0  0  0
   19.1010   17.5044   24.8271 H   0  0  0  0  0  0  0  0  0  0  0  0
   20.3419   19.2498   24.4433 C   0  0  0  0  0  0  0  0  0  0  0  0
   20.3491   20.1050   23.7563 H   0  0  0  0  0  0  0  0  0  0  0  0
   21.2992   18.7274   24.3154 H   0  0  0  0  0  0  0  0  0  0  0  0
   20.2434   19.8002   25.8793 C   0  0  0  0  0  0  0  0  0  0  0  0
   21.0340   20.5384   26.0387 H   0  0  0  0  0  0  0  0  0  0  0  0
   19.2797   20.2977   26.0177 H   0  0  0  0  0  0  0  0  0  0  0  0
   20.3848   18.7390   26.9530 N   0  3  0  0  0  0  0  0  0  0  0  0
   20.3294   19.1411   27.8951 H   0  0  0  0  0  0  0  0  0  0  0  0
   21.2835   18.2498   26.8888 H   0  0  0  0  0  0  0  0  0  0  0  0
   19.6483   18.0299   26.8862 H   0  0  0  0  0  0  0  0  0  0  0  0
  1  2  1  0  0  0  0
  1  3  1  0  0  0  0
  1  4  1  0  0  0  0
  1  5  1  0  0  0  0
  5  6  1  0  0  0  0
  5  7  1  0  0  0  0
  5  8  1  0  0  0  0
  8  9  1  0  0  0  0
  8 10  1  0  0  0  0
  8 11  1  0  0  0  0
 11 12  1  0  0  0  0
 11 13  1  0  0  0  0
 11 14  1  0  0  0  0
 14 15  1  0  0  0  0
 14 16  1  0  0  0  0
 14 17  1  0  0  0  0
 17 18  1  0  0  0  0
 17 19  1  0  0  0  0
 17 20  1  0  0  0  0
 20 21  1  0  0  0  0
 20 22  1  0  0  0  0
 20 23  1  0  0  0  0
 23 24  1  0  0  0  0
 23 25  1  0  0  0  0
 23 26  1  0  0  0  0
M  END
> <VM2 Rank>
134

> <Conf_Id>
1500

> <Probability>
0.01

> <Sum Probability>
99.64

> <Delta G>
3.725

> <G>
51.987

> <E>
19.161

> <-TS>
32.825

> <U+W>
-2.301

> <U>
51.407

> <W>
-53.708

> <W(PB)>
-55.988

> <W(SA)>
2.280

> <Valence>
5.338

> <Coulomb>
45.268

> <VdW>
0.801

> <VdW6>
-7.902

> <VdW12>
8.703

> <Bond>
0.239

> <Angle>
1.230

> <Pdih>
3.869

> <Idih>
0.000

> <Tether>
0.000

$$$$
VeraChem MOL file


 26 25  0  0  0  0  0  0  0  0999 V2000     
   20.3406   20.0866   19.7714 C   0  0  0  0  0  0  0  0  0  0  0  0
   19.3304   20.4797   19.5978 H   0  0  0  0  0  0  0  0  0  0  0  0
   21.0490   20.9182   19.6639 H   0  0  0  0  0  0  0  0  0  0  0  0
   20.5616   19.3525   18.9856 H   0  0  0  0  0  0  0  0  0  0  0  0
   20.4549   19.4512   21.1733 C   0  0  0  0  0  0  0  0  0  0  0  0
   20.2645   20.2249   21.9287 H   0  0  0  0  0  0  0  0  0  0  0  0
   21.4818   19.0916   21.3276 H   0  0  0  0  0  0  0  0  0  0  0  0
   19.4584   18.2833   21.3530 C   0  0  0  0  0  0  0  0  0  0  0  0
   18.4311   18.6657   21.2783 H   0  0  0  0  0  0  0  0  0  0  0  0
   19.5824   17.5777   20.5198 H   0  0  0  0  0  0  0  0  0  0  0  0
   19.6208   17.4997   22.6812 C   0  0  0  0  0  0  0  0  0  0  0  0
   20.6104   17.0238   22.7208 H   0  0  0  0  0  0  0  0  0  0  0  0
   18.8965   16.6735   22.6673 H   0  0  0  0  0  0  0  0  0  0  0  0
   19.3736   18.3372   23.9631 C   0  0  0  0  0  0  0  0  0  0  0  0
   18.6793   19.1610   23.7473 H   0  0  0  0  0  0  0  0  0  0  0  0
   18.8672   17.6970   24.6978 H   0  0  0  0  0  0  0  0  0  0  0  0
   20.6769   18.8821   24.6011 C   0  0  0  0  0  0  0  0  0  0  0  0
   21.2488   19.4580   23.8649 H   0  0  0  0  0  0  0  0  0  0  0  0
   21.3209   18.0461   24.9048 H   0  0  0  0  0  0  0  0  0  0  0  0
   20.4078   19.7879   25.8182 C   0  0  0  0  0  0  0  0  0  0  0  0
   21.3536   20.2017   26.1785 H   0  0  0  0  0  0  0  0  0  0  0  0
   19.7626   20.6196   25.5222 H   0  0  0  0  0  0  0  0  0  0  0  0
   19.7479   19.0710   26.9797 N   0  3  0  0  0  0  0  0  0  0  0  0
   19.5946   19.6983   27.7768 H   0  0  0  0  0  0  0  0  0  0  0  0
   20.3187   18.2899   27.3189 H   0  0  0  0  0  0  0  0  0  0  0  0
   18.8338   18.6879   26.7195 H   0  0  0  0  0  0  0  0  0  0  0  0
  1  2  1  0  0  0  0
  1  3  1  0  0  0  0
  1  4  1  0  0  0  0
  1  5  1  0  0  0  0
  5  6  1  0  0  0  0
  5  7  1  0  0  0  0
  5  8  1  0  0  0  0
  8  9  1  0  0  0  0
  8 10  1  0  0  0  0
  8 11  1  0  0  0  0
 11 12  1  0  0  0  0
 11 13  1  0  0  0  0
 11 14  1  0  0  0  0
 14 15  1  0  0  0  0
 14 16  1  0  0  0  0
 14 17  1  0  0  0  0
 17 18  1  0  0  0  0
 17 19  1  0  0  0  0
 17 20  1  0  0  0  0
 20 21  1  0  0  0  0
 20 22  1  0  0  0  0
 20 23  1  0  0  0  0
 23 24  1  0  0  0  0
 23 25  1  0  0  0  0
 23 26  1  0  0  0  0
M  END
> <VM2 Rank>
135

> <Conf_Id>
1043

> <Probability>
0.01

> <Sum Probability>
99.65

> <Delta G>
3.728

> <G>
51.989

> <E>
19.144

> <-TS>
32.845

> <U+W>
-2.317

> <U>
51.425

> <W>
-53.743

> <W(PB)>
-56.025

> <W(SA)>
2.282

> <Valence>
5.322

> <Coulomb>
45.311

> <VdW>
0.792

> <VdW6>
-7.911

> <VdW12>
8.703

> <Bond>
0.240

> <Angle>
1.176

> <Pdih>
3.905

> <Idih>
0.000

> <Tether>
0.000

$$$$
VeraChem MOL file


 26 25  0  0  0  0  0  0  0  0999 V2000     
   18.4550   19.1190   20.7499 C   0  0  0  0  0  0  0  0  0  0  0  0
   18.4560   20.0748   20.2099 H   0  0  0  0  0  0  0  0  0  0  0  0
   17.6578   18.4968   20.3229 H   0  0  0  0  0  0  0  0  0  0  0  0
   18.1939   19.3226   21.7940 H   0  0  0  0  0  0  0  0  0  0  0  0
   19.8233   18.4102   20.6183 C   0  0  0  0  0  0  0  0  0  0  0  0
   20.0050   18.2215   19.5509 H   0  0  0  0  0  0  0  0  0  0  0  0
   19.7899   17.4222   21.0981 H   0  0  0  0  0  0  0  0  0  0  0  0
   21.0043   19.2429   21.1804 C   0  0  0  0  0  0  0  0  0  0  0  0
   21.8828   19.0615   20.5457 H   0  0  0  0  0  0  0  0  0  0  0  0
   20.7902   20.3166   21.0884 H   0  0  0  0  0  0  0  0  0  0  0  0
   21.4057   18.9025   22.6391 C   0  0  0  0  0  0  0  0  0  0  0  0
   22.2892   19.5015   22.9000 H   0  0  0  0  0  0  0  0  0  0  0  0
   21.7219   17.8517   22.6945 H   0  0  0  0  0  0  0  0  0  0  0  0
   20.2952   19.1606   23.6835 C   0  0  0  0  0  0  0  0  0  0  0  0
   19.9108   20.1834   23.5672 H   0  0  0  0  0  0  0  0  0  0  0  0
   19.4590   18.4747   23.5004 H   0  0  0  0  0  0  0  0  0  0  0  0
   20.8105   18.9645   25.1290 C   0  0  0  0  0  0  0  0  0  0  0  0
   21.6688   19.6271   25.3027 H   0  0  0  0  0  0  0  0  0  0  0  0
   21.1755   17.9374   25.2624 H   0  0  0  0  0  0  0  0  0  0  0  0
   19.7366   19.2713   26.1906 C   0  0  0  0  0  0  0  0  0  0  0  0
   20.1816   19.2012   27.1870 H   0  0  0  0  0  0  0  0  0  0  0  0
   19.3648   20.2904   26.0544 H   0  0  0  0  0  0  0  0  0  0  0  0
   18.5503   18.3280   26.1502 N   0  3  0  0  0  0  0  0  0  0  0  0
   17.8619   18.5512   26.8773 H   0  0  0  0  0  0  0  0  0  0  0  0
   18.8339   17.3536   26.2957 H   0  0  0  0  0  0  0  0  0  0  0  0
   18.0614   18.3708   25.2508 H   0  0  0  0  0  0  0  0  0  0  0  0
  1  2  1  0  0  0  0
  1  3  1  0  0  0  0
  1  4  1  0  0  0  0
  1  5  1  0  0  0  0
  5  6  1  0  0  0  0
  5  7  1  0  0  0  0
  5  8  1  0  0  0  0
  8  9  1  0  0  0  0
  8 10  1  0  0  0  0
  8 11  1  0  0  0  0
 11 12  1  0  0  0  0
 11 13  1  0  0  0  0
 11 14  1  0  0  0  0
 14 15  1  0  0  0  0
 14 16  1  0  0  0  0
 14 17  1  0  0  0  0
 17 18  1  0  0  0  0
 17 19  1  0  0  0  0
 17 20  1  0  0  0  0
 20 21  1  0  0  0  0
 20 22  1  0  0  0  0
 20 23  1  0  0  0  0
 23 24  1  0  0  0  0
 23 25  1  0  0  0  0
 23 26  1  0  0  0  0
M  END
> <VM2 Rank>
136

> <Conf_Id>
445

> <Probability>
0.01

> <Sum Probability>
99.67

> <Delta G>
3.733

> <G>
51.994

> <E>
19.192

> <-TS>
32.803

> <U+W>
-2.270

> <U>
51.677

> <W>
-53.947

> <W(PB)>
-56.190

> <W(SA)>
2.243

> <Valence>
5.252

> <Coulomb>
45.638

> <VdW>
0.787

> <VdW6>
-7.893

> <VdW12>
8.680

> <Bond>
0.235

> <Angle>
1.222

> <Pdih>
3.795

> <Idih>
0.000

> <Tether>
0.000

$$$$
VeraChem MOL file


 26 25  0  0  0  0  0  0  0  0999 V2000     
   18.9236   18.8543   19.7611 C   0  0  0  0  0  0  0  0  0  0  0  0
   19.5569   19.2428   18.9529 H   0  0  0  0  0  0  0  0  0  0  0  0
   18.3317   18.0235   19.3556 H   0  0  0  0  0  0  0  0  0  0  0  0
   18.2278   19.6484   20.0620 H   0  0  0  0  0  0  0  0  0  0  0  0
   19.7772   18.3825   20.9572 C   0  0  0  0  0  0  0  0  0  0  0  0
   20.4366   17.5661   20.6312 H   0  0  0  0  0  0  0  0  0  0  0  0
   19.1178   17.9614   21.7256 H   0  0  0  0  0  0  0  0  0  0  0  0
   20.6304   19.5356   21.5390 C   0  0  0  0  0  0  0  0  0  0  0  0
   21.3001   19.8973   20.7465 H   0  0  0  0  0  0  0  0  0  0  0  0
   19.9917   20.3883   21.8075 H   0  0  0  0  0  0  0  0  0  0  0  0
   21.4937   19.1108   22.7556 C   0  0  0  0  0  0  0  0  0  0  0  0
   22.4540   19.6415   22.6949 H   0  0  0  0  0  0  0  0  0  0  0  0
   21.7427   18.0425   22.6923 H   0  0  0  0  0  0  0  0  0  0  0  0
   20.8707   19.4317   24.1389 C   0  0  0  0  0  0  0  0  0  0  0  0
   21.6003   19.1532   24.9106 H   0  0  0  0  0  0  0  0  0  0  0  0
   20.7279   20.5173   24.2311 H   0  0  0  0  0  0  0  0  0  0  0  0
   19.5278   18.7130   24.4161 C   0  0  0  0  0  0  0  0  0  0  0  0
   19.6378   17.6317   24.2598 H   0  0  0  0  0  0  0  0  0  0  0  0
   18.7714   19.0647   23.7037 H   0  0  0  0  0  0  0  0  0  0  0  0
   18.9942   18.9762   25.8376 C   0  0  0  0  0  0  0  0  0  0  0  0
   18.9091   20.0532   26.0055 H   0  0  0  0  0  0  0  0  0  0  0  0
   17.9983   18.5361   25.9374 H   0  0  0  0  0  0  0  0  0  0  0  0
   19.8635   18.3949   26.9356 N   0  3  0  0  0  0  0  0  0  0  0  0
   19.4721   18.5753   27.8665 H   0  0  0  0  0  0  0  0  0  0  0  0
   20.8071   18.7940   26.9248 H   0  0  0  0  0  0  0  0  0  0  0  0
   19.9630   17.3787   26.8446 H   0  0  0  0  0  0  0  0  0  0  0  0
  1  2  1  0  0  0  0
  1  3  1  0  0  0  0
  1  4  1  0  0  0  0
  1  5  1  0  0  0  0
  5  6  1  0  0  0  0
  5  7  1  0  0  0  0
  5  8  1  0  0  0  0
  8  9  1  0  0  0  0
  8 10  1  0  0  0  0
  8 11  1  0  0  0  0
 11 12  1  0  0  0  0
 11 13  1  0  0  0  0
 11 14  1  0  0  0  0
 14 15  1  0  0  0  0
 14 16  1  0  0  0  0
 14 17  1  0  0  0  0
 17 18  1  0  0  0  0
 17 19  1  0  0  0  0
 17 20  1  0  0  0  0
 20 21  1  0  0  0  0
 20 22  1  0  0  0  0
 20 23  1  0  0  0  0
 23 24  1  0  0  0  0
 23 25  1  0  0  0  0
 23 26  1  0  0  0  0
M  END
> <VM2 Rank>
137

> <Conf_Id>
991

> <Probability>
0.01

> <Sum Probability>
99.68

> <Delta G>
3.745

> <G>
52.006

> <E>
19.181

> <-TS>
32.825

> <U+W>
-2.281

> <U>
51.407

> <W>
-53.688

> <W(PB)>
-55.961

> <W(SA)>
2.273

> <Valence>
5.338

> <Coulomb>
45.268

> <VdW>
0.801

> <VdW6>
-7.902

> <VdW12>
8.703

> <Bond>
0.239

> <Angle>
1.230

> <Pdih>
3.868

> <Idih>
0.000

> <Tether>
0.000

$$$$
VeraChem MOL file


 26 25  0  0  0  0  0  0  0  0999 V2000     
   21.0613   20.1917   21.0102 C   0  0  0  0  0  0  0  0  0  0  0  0
   20.3955   20.9863   21.3710 H   0  0  0  0  0  0  0  0  0  0  0  0
   21.6453   19.8116   21.8574 H   0  0  0  0  0  0  0  0  0  0  0  0
   21.7682   20.6420   20.3014 H   0  0  0  0  0  0  0  0  0  0  0  0
   20.2610   19.0606   20.3285 C   0  0  0  0  0  0  0  0  0  0  0  0
   20.9475   18.2532   20.0374 H   0  0  0  0  0  0  0  0  0  0  0  0
   19.8323   19.4469   19.3932 H   0  0  0  0  0  0  0  0  0  0  0  0
   19.1125   18.4795   21.1922 C   0  0  0  0  0  0  0  0  0  0  0  0
   18.3658   19.2580   21.4008 H   0  0  0  0  0  0  0  0  0  0  0  0
   18.5920   17.7258   20.5852 H   0  0  0  0  0  0  0  0  0  0  0  0
   19.5704   17.8046   22.5114 C   0  0  0  0  0  0  0  0  0  0  0  0
   20.5849   17.3994   22.3943 H   0  0  0  0  0  0  0  0  0  0  0  0
   18.9189   16.9409   22.7039 H   0  0  0  0  0  0  0  0  0  0  0  0
   19.5018   18.7442   23.7402 C   0  0  0  0  0  0  0  0  0  0  0  0
   20.1074   19.6400   23.5640 H   0  0  0  0  0  0  0  0  0  0  0  0
   18.4670   19.0872   23.8781 H   0  0  0  0  0  0  0  0  0  0  0  0
   19.9823   18.0362   25.0290 C   0  0  0  0  0  0  0  0  0  0  0  0
   21.0258   17.7137   24.9143 H   0  0  0  0  0  0  0  0  0  0  0  0
   19.3887   17.1260   25.1870 H   0  0  0  0  0  0  0  0  0  0  0  0
   19.8536   18.9256   26.2807 C   0  0  0  0  0  0  0  0  0  0  0  0
   18.8172   19.2550   26.3933 H   0  0  0  0  0  0  0  0  0  0  0  0
   20.1251   18.3455   27.1669 H   0  0  0  0  0  0  0  0  0  0  0  0
   20.7381   20.1567   26.2489 N   0  3  0  0  0  0  0  0  0  0  0  0
   20.6388   20.7183   27.1016 H   0  0  0  0  0  0  0  0  0  0  0  0
   20.5099   20.7679   25.4589 H   0  0  0  0  0  0  0  0  0  0  0  0
   21.7299   19.9107   26.1665 H   0  0  0  0  0  0  0  0  0  0  0  0
  1  2  1  0  0  0  0
  1  3  1  0  0  0  0
  1  4  1  0  0  0  0
  1  5  1  0  0  0  0
  5  6  1  0  0  0  0
  5  7  1  0  0  0  0
  5  8  1  0  0  0  0
  8  9  1  0  0  0  0
  8 10  1  0  0  0  0
  8 11  1  0  0  0  0
 11 12  1  0  0  0  0
 11 13  1  0  0  0  0
 11 14  1  0  0  0  0
 14 15  1  0  0  0  0
 14 16  1  0  0  0  0
 14 17  1  0  0  0  0
 17 18  1  0  0  0  0
 17 19  1  0  0  0  0
 17 20  1  0  0  0  0
 20 21  1  0  0  0  0
 20 22  1  0  0  0  0
 20 23  1  0  0  0  0
 23 24  1  0  0  0  0
 23 25  1  0  0  0  0
 23 26  1  0  0  0  0
M  END
> <VM2 Rank>
138

> <Conf_Id>
1328

> <Probability>
0.01

> <Sum Probability>
99.69

> <Delta G>
3.749

> <G>
52.010

> <E>
19.193

> <-TS>
32.817

> <U+W>
-2.269

> <U>
51.663

> <W>
-53.932

> <W(PB)>
-56.204

> <W(SA)>
2.272

> <Valence>
5.225

> <Coulomb>
45.676

> <VdW>
0.761

> <VdW6>
-7.910

> <VdW12>
8.671

> <Bond>
0.235

> <Angle>
1.177

> <Pdih>
3.813

> <Idih>
0.000

> <Tether>
0.000

$$$$
VeraChem MOL file


 26 25  0  0  0  0  0  0  0  0999 V2000     
   18.6349   19.3932   20.7724 C   0  0  0  0  0  0  0  0  0  0  0  0
   18.9268   20.4509   20.7411 H   0  0  0  0  0  0  0  0  0  0  0  0
   17.8145   19.2498   20.0574 H   0  0  0  0  0  0  0  0  0  0  0  0
   18.2414   19.1675   21.7711 H   0  0  0  0  0  0  0  0  0  0  0  0
   19.8254   18.4756   20.4183 C   0  0  0  0  0  0  0  0  0  0  0  0
   20.0735   18.6144   19.3567 H   0  0  0  0  0  0  0  0  0  0  0  0
   19.5195   17.4254   20.5242 H   0  0  0  0  0  0  0  0  0  0  0  0
   21.1023   18.7321   21.2589 C   0  0  0  0  0  0  0  0  0  0  0  0
   21.8841   18.0559   20.8861 H   0  0  0  0  0  0  0  0  0  0  0  0
   21.4778   19.7480   21.0744 H   0  0  0  0  0  0  0  0  0  0  0  0
   20.9368   18.4860   22.7813 C   0  0  0  0  0  0  0  0  0  0  0  0
   21.8777   18.0722   23.1698 H   0  0  0  0  0  0  0  0  0  0  0  0
   20.1734   17.7152   22.9502 H   0  0  0  0  0  0  0  0  0  0  0  0
   20.6112   19.7742   23.5807 C   0  0  0  0  0  0  0  0  0  0  0  0
   21.4043   20.5140   23.4053 H   0  0  0  0  0  0  0  0  0  0  0  0
   19.6826   20.2310   23.2182 H   0  0  0  0  0  0  0  0  0  0  0  0
   20.4951   19.5275   25.1031 C   0  0  0  0  0  0  0  0  0  0  0  0
   20.3698   20.4926   25.6118 H   0  0  0  0  0  0  0  0  0  0  0  0
   21.4304   19.0924   25.4798 H   0  0  0  0  0  0  0  0  0  0  0  0
   19.3125   18.6103   25.4668 C   0  0  0  0  0  0  0  0  0  0  0  0
   18.3816   19.0443   25.0920 H   0  0  0  0  0  0  0  0  0  0  0  0
   19.4471   17.6301   25.0023 H   0  0  0  0  0  0  0  0  0  0  0  0
   19.1628   18.4001   26.9597 N   0  3  0  0  0  0  0  0  0  0  0  0
   19.0044   19.2832   27.4558 H   0  0  0  0  0  0  0  0  0  0  0  0
   19.9975   17.9689   27.3703 H   0  0  0  0  0  0  0  0  0  0  0  0
   18.3705   17.7872   27.1807 H   0  0  0  0  0  0  0  0  0  0  0  0
  1  2  1  0  0  0  0
  1  3  1  0  0  0  0
  1  4  1  0  0  0  0
  1  5  1  0  0  0  0
  5  6  1  0  0  0  0
  5  7  1  0  0  0  0
  5  8  1  0  0  0  0
  8  9  1  0  0  0  0
  8 10  1  0  0  0  0
  8 11  1  0  0  0  0
 11 12  1  0  0  0  0
 11 13  1  0  0  0  0
 11 14  1  0  0  0  0
 14 15  1  0  0  0  0
 14 16  1  0  0  0  0
 14 17  1  0  0  0  0
 17 18  1  0  0  0  0
 17 19  1  0  0  0  0
 17 20  1  0  0  0  0
 20 21  1  0  0  0  0
 20 22  1  0  0  0  0
 20 23  1  0  0  0  0
 23 24  1  0  0  0  0
 23 25  1  0  0  0  0
 23 26  1  0  0  0  0
M  END
> <VM2 Rank>
139

> <Conf_Id>
1260

> <Probability>
0.01

> <Sum Probability>
99.71

> <Delta G>
3.756

> <G>
52.017

> <E>
19.229

> <-TS>
32.788

> <U+W>
-2.233

> <U>
51.443

> <W>
-53.675

> <W(PB)>
-55.934

> <W(SA)>
2.259

> <Valence>
5.420

> <Coulomb>
45.330

> <VdW>
0.692

> <VdW6>
-8.007

> <VdW12>
8.700

> <Bond>
0.240

> <Angle>
1.285

> <Pdih>
3.895

> <Idih>
0.000

> <Tether>
0.000

$$$$
VeraChem MOL file


 26 25  0  0  0  0  0  0  0  0999 V2000     
   19.0970   19.7364   20.1605 C   0  0  0  0  0  0  0  0  0  0  0  0
   18.8557   20.3529   21.0332 H   0  0  0  0  0  0  0  0  0  0  0  0
   19.7934   20.3028   19.5287 H   0  0  0  0  0  0  0  0  0  0  0  0
   18.1708   19.5932   19.5890 H   0  0  0  0  0  0  0  0  0  0  0  0
   19.7015   18.3703   20.5608 C   0  0  0  0  0  0  0  0  0  0  0  0
   19.8853   17.7995   19.6397 H   0  0  0  0  0  0  0  0  0  0  0  0
   18.9730   17.7847   21.1386 H   0  0  0  0  0  0  0  0  0  0  0  0
   21.0364   18.4905   21.3405 C   0  0  0  0  0  0  0  0  0  0  0  0
   21.6774   17.6462   21.0511 H   0  0  0  0  0  0  0  0  0  0  0  0
   21.5791   19.3935   21.0289 H   0  0  0  0  0  0  0  0  0  0  0  0
   20.8940   18.4585   22.8841 C   0  0  0  0  0  0  0  0  0  0  0  0
   21.9018   18.4695   23.3217 H   0  0  0  0  0  0  0  0  0  0  0  0
   20.4405   17.5038   23.1828 H   0  0  0  0  0  0  0  0  0  0  0  0
   20.0772   19.6345   23.4729 C   0  0  0  0  0  0  0  0  0  0  0  0
   20.4507   20.5803   23.0572 H   0  0  0  0  0  0  0  0  0  0  0  0
   19.0259   19.5459   23.1694 H   0  0  0  0  0  0  0  0  0  0  0  0
   20.1487   19.7064   25.0163 C   0  0  0  0  0  0  0  0  0  0  0  0
   19.6079   20.5992   25.3574 H   0  0  0  0  0  0  0  0  0  0  0  0
   21.1930   19.8317   25.3322 H   0  0  0  0  0  0  0  0  0  0  0  0
   19.5478   18.4621   25.6966 C   0  0  0  0  0  0  0  0  0  0  0  0
   18.5068   18.3395   25.3856 H   0  0  0  0  0  0  0  0  0  0  0  0
   20.1046   17.5709   25.3956 H   0  0  0  0  0  0  0  0  0  0  0  0
   19.5783   18.5405   27.2093 N   0  3  0  0  0  0  0  0  0  0  0  0
   19.1740   17.7031   27.6425 H   0  0  0  0  0  0  0  0  0  0  0  0
   19.0475   19.3441   27.5610 H   0  0  0  0  0  0  0  0  0  0  0  0
   20.5345   18.6301   27.5680 H   0  0  0  0  0  0  0  0  0  0  0  0
  1  2  1  0  0  0  0
  1  3  1  0  0  0  0
  1  4  1  0  0  0  0
  1  5  1  0  0  0  0
  5  6  1  0  0  0  0
  5  7  1  0  0  0  0
  5  8  1  0  0  0  0
  8  9  1  0  0  0  0
  8 10  1  0  0  0  0
  8 11  1  0  0  0  0
 11 12  1  0  0  0  0
 11 13  1  0  0  0  0
 11 14  1  0  0  0  0
 14 15  1  0  0  0  0
 14 16  1  0  0  0  0
 14 17  1  0  0  0  0
 17 18  1  0  0  0  0
 17 19  1  0  0  0  0
 17 20  1  0  0  0  0
 20 21  1  0  0  0  0
 20 22  1  0  0  0  0
 20 23  1  0  0  0  0
 23 24  1  0  0  0  0
 23 25  1  0  0  0  0
 23 26  1  0  0  0  0
M  END
> <VM2 Rank>
140

> <Conf_Id>
1059

> <Probability>
0.01

> <Sum Probability>
99.72

> <Delta G>
3.782

> <G>
52.043

> <E>
19.253

> <-TS>
32.790

> <U+W>
-2.209

> <U>
51.296

> <W>
-53.505

> <W(PB)>
-55.786

> <W(SA)>
2.282

> <Valence>
5.428

> <Coulomb>
45.117

> <VdW>
0.751

> <VdW6>
-7.913

> <VdW12>
8.664

> <Bond>
0.235

> <Angle>
1.292

> <Pdih>
3.901

> <Idih>
0.000

> <Tether>
0.000

$$$$
VeraChem MOL file


 26 25  0  0  0  0  0  0  0  0999 V2000     
   19.0612   20.0062   20.0214 C   0  0  0  0  0  0  0  0  0  0  0  0
   19.6632   20.9243   20.0156 H   0  0  0  0  0  0  0  0  0  0  0  0
   18.8218   19.7539   18.9802 H   0  0  0  0  0  0  0  0  0  0  0  0
   18.1182   20.2188   20.5418 H   0  0  0  0  0  0  0  0  0  0  0  0
   19.8218   18.8482   20.7016 C   0  0  0  0  0  0  0  0  0  0  0  0
   20.7415   18.6361   20.1384 H   0  0  0  0  0  0  0  0  0  0  0  0
   19.2088   17.9368   20.6625 H   0  0  0  0  0  0  0  0  0  0  0  0
   20.1720   19.1782   22.1694 C   0  0  0  0  0  0  0  0  0  0  0  0
   20.7872   20.0879   22.1991 H   0  0  0  0  0  0  0  0  0  0  0  0
   19.2466   19.4020   22.7110 H   0  0  0  0  0  0  0  0  0  0  0  0
   20.9349   18.0156   22.8509 C   0  0  0  0  0  0  0  0  0  0  0  0
   21.8282   17.7974   22.2492 H   0  0  0  0  0  0  0  0  0  0  0  0
   20.3281   17.0998   22.8345 H   0  0  0  0  0  0  0  0  0  0  0  0
   21.3960   18.3217   24.3001 C   0  0  0  0  0  0  0  0  0  0  0  0
   22.2984   17.7264   24.4967 H   0  0  0  0  0  0  0  0  0  0  0  0
   21.7143   19.3690   24.3877 H   0  0  0  0  0  0  0  0  0  0  0  0
   20.3639   17.9669   25.4038 C   0  0  0  0  0  0  0  0  0  0  0  0
   20.8352   18.1007   26.3866 H   0  0  0  0  0  0  0  0  0  0  0  0
   20.1121   16.9004   25.3335 H   0  0  0  0  0  0  0  0  0  0  0  0
   19.0586   18.7845   25.3708 C   0  0  0  0  0  0  0  0  0  0  0  0
   18.5320   18.6048   24.4310 H   0  0  0  0  0  0  0  0  0  0  0  0
   18.4081   18.4585   26.1869 H   0  0  0  0  0  0  0  0  0  0  0  0
   19.2727   20.2776   25.5231 N   0  3  0  0  0  0  0  0  0  0  0  0
   19.7311   20.5059   26.4112 H   0  0  0  0  0  0  0  0  0  0  0  0
   18.3868   20.7942   25.5016 H   0  0  0  0  0  0  0  0  0  0  0  0
   19.8614   20.6518   24.7728 H   0  0  0  0  0  0  0  0  0  0  0  0
  1  2  1  0  0  0  0
  1  3  1  0  0  0  0
  1  4  1  0  0  0  0
  1  5  1  0  0  0  0
  5  6  1  0  0  0  0
  5  7  1  0  0  0  0
  5  8  1  0  0  0  0
  8  9  1  0  0  0  0
  8 10  1  0  0  0  0
  8 11  1  0  0  0  0
 11 12  1  0  0  0  0
 11 13  1  0  0  0  0
 11 14  1  0  0  0  0
 14 15  1  0  0  0  0
 14 16  1  0  0  0  0
 14 17  1  0  0  0  0
 17 18  1  0  0  0  0
 17 19  1  0  0  0  0
 17 20  1  0  0  0  0
 20 21  1  0  0  0  0
 20 22  1  0  0  0  0
 20 23  1  0  0  0  0
 23 24  1  0  0  0  0
 23 25  1  0  0  0  0
 23 26  1  0  0  0  0
M  END
> <VM2 Rank>
141

> <Conf_Id>
1301

> <Probability>
0.01

> <Sum Probability>
99.73

> <Delta G>
3.799

> <G>
52.060

> <E>
19.191

> <-TS>
32.869

> <U+W>
-2.270

> <U>
51.830

> <W>
-54.101

> <W(PB)>
-56.379

> <W(SA)>
2.279

> <Valence>
4.864

> <Coulomb>
46.522

> <VdW>
0.444

> <VdW6>
-8.267

> <VdW12>
8.711

> <Bond>
0.239

> <Angle>
1.441

> <Pdih>
3.184

> <Idih>
0.000

> <Tether>
0.000

$$$$
VeraChem MOL file


 26 25  0  0  0  0  0  0  0  0999 V2000     
   19.7071   19.6273   19.8851 C   0  0  0  0  0  0  0  0  0  0  0  0
   18.9638   18.8204   19.8873 H   0  0  0  0  0  0  0  0  0  0  0  0
   19.2195   20.5454   20.2377 H   0  0  0  0  0  0  0  0  0  0  0  0
   20.0159   19.7894   18.8443 H   0  0  0  0  0  0  0  0  0  0  0  0
   20.9288   19.2745   20.7635 C   0  0  0  0  0  0  0  0  0  0  0  0
   21.6912   20.0568   20.6428 H   0  0  0  0  0  0  0  0  0  0  0  0
   21.3857   18.3421   20.4033 H   0  0  0  0  0  0  0  0  0  0  0  0
   20.5844   19.1424   22.2665 C   0  0  0  0  0  0  0  0  0  0  0  0
   21.5158   18.9815   22.8264 H   0  0  0  0  0  0  0  0  0  0  0  0
   20.1617   20.0928   22.6158 H   0  0  0  0  0  0  0  0  0  0  0  0
   19.5988   17.9869   22.5686 C   0  0  0  0  0  0  0  0  0  0  0  0
   19.9291   17.0885   22.0292 H   0  0  0  0  0  0  0  0  0  0  0  0
   18.6054   18.2344   22.1713 H   0  0  0  0  0  0  0  0  0  0  0  0
   19.4701   17.6255   24.0711 C   0  0  0  0  0  0  0  0  0  0  0  0
   18.8019   16.7562   24.1428 H   0  0  0  0  0  0  0  0  0  0  0  0
   20.4379   17.2825   24.4593 H   0  0  0  0  0  0  0  0  0  0  0  0
   18.8857   18.7488   24.9691 C   0  0  0  0  0  0  0  0  0  0  0  0
   18.4204   18.2910   25.8521 H   0  0  0  0  0  0  0  0  0  0  0  0
   18.0756   19.2633   24.4355 H   0  0  0  0  0  0  0  0  0  0  0  0
   19.9177   19.7875   25.4572 C   0  0  0  0  0  0  0  0  0  0  0  0
   20.4140   20.2595   24.6079 H   0  0  0  0  0  0  0  0  0  0  0  0
   19.4011   20.5684   26.0219 H   0  0  0  0  0  0  0  0  0  0  0  0
   20.9882   19.2061   26.3597 N   0  3  0  0  0  0  0  0  0  0  0  0
   21.5386   18.4866   25.8813 H   0  0  0  0  0  0  0  0  0  0  0  0
   20.5855   18.7728   27.1969 H   0  0  0  0  0  0  0  0  0  0  0  0
   21.6463   19.9241   26.6815 H   0  0  0  0  0  0  0  0  0  0  0  0
  1  2  1  0  0  0  0
  1  3  1  0  0  0  0
  1  4  1  0  0  0  0
  1  5  1  0  0  0  0
  5  6  1  0  0  0  0
  5  7  1  0  0  0  0
  5  8  1  0  0  0  0
  8  9  1  0  0  0  0
  8 10  1  0  0  0  0
  8 11  1  0  0  0  0
 11 12  1  0  0  0  0
 11 13  1  0  0  0  0
 11 14  1  0  0  0  0
 14 15  1  0  0  0  0
 14 16  1  0  0  0  0
 14 17  1  0  0  0  0
 17 18  1  0  0  0  0
 17 19  1  0  0  0  0
 17 20  1  0  0  0  0
 20 21  1  0  0  0  0
 20 22  1  0  0  0  0
 20 23  1  0  0  0  0
 23 24  1  0  0  0  0
 23 25  1  0  0  0  0
 23 26  1  0  0  0  0
M  END
> <VM2 Rank>
142

> <Conf_Id>
517

> <Probability>
0.01

> <Sum Probability>
99.74

> <Delta G>
3.800

> <G>
52.061

> <E>
19.187

> <-TS>
32.874

> <U+W>
-2.275

> <U>
51.886

> <W>
-54.161

> <W(PB)>
-56.424

> <W(SA)>
2.264

> <Valence>
5.153

> <Coulomb>
46.018

> <VdW>
0.715

> <VdW6>
-8.701

> <VdW12>
9.416

> <Bond>
0.265

> <Angle>
1.543

> <Pdih>
3.345

> <Idih>
0.000

> <Tether>
0.000

$$$$
VeraChem MOL file


 26 25  0  0  0  0  0  0  0  0999 V2000     
   19.6423   19.5846   19.8830 C   0  0  0  0  0  0  0  0  0  0  0  0
   20.6752   19.9495   19.9445 H   0  0  0  0  0  0  0  0  0  0  0  0
   19.4206   19.3968   18.8244 H   0  0  0  0  0  0  0  0  0  0  0  0
   18.9739   20.3834   20.2295 H   0  0  0  0  0  0  0  0  0  0  0  0
   19.4461   18.2964   20.7140 C   0  0  0  0  0  0  0  0  0  0  0  0
   20.1400   17.5204   20.3617 H   0  0  0  0  0  0  0  0  0  0  0  0
   18.4339   17.9080   20.5340 H   0  0  0  0  0  0  0  0  0  0  0  0
   19.6327   18.5146   22.2348 C   0  0  0  0  0  0  0  0  0  0  0  0
   18.9093   19.2667   22.5739 H   0  0  0  0  0  0  0  0  0  0  0  0
   19.3888   17.5785   22.7554 H   0  0  0  0  0  0  0  0  0  0  0  0
   21.0668   18.9553   22.6177 C   0  0  0  0  0  0  0  0  0  0  0  0
   21.2479   19.9776   22.2597 H   0  0  0  0  0  0  0  0  0  0  0  0
   21.7875   18.3145   22.0913 H   0  0  0  0  0  0  0  0  0  0  0  0
   21.3795   18.8849   24.1350 C   0  0  0  0  0  0  0  0  0  0  0  0
   21.2965   17.8489   24.4879 H   0  0  0  0  0  0  0  0  0  0  0  0
   22.4370   19.1538   24.2643 H   0  0  0  0  0  0  0  0  0  0  0  0
   20.5353   19.8368   25.0243 C   0  0  0  0  0  0  0  0  0  0  0  0
   20.4056   20.8001   24.5135 H   0  0  0  0  0  0  0  0  0  0  0  0
   21.0974   20.0566   25.9417 H   0  0  0  0  0  0  0  0  0  0  0  0
   19.1534   19.2834   25.4317 C   0  0  0  0  0  0  0  0  0  0  0  0
   18.6127   20.0483   25.9957 H   0  0  0  0  0  0  0  0  0  0  0  0
   18.5645   19.0397   24.5461 H   0  0  0  0  0  0  0  0  0  0  0  0
   19.2250   18.0431   26.3006 N   0  3  0  0  0  0  0  0  0  0  0  0
   18.2921   17.7117   26.5692 H   0  0  0  0  0  0  0  0  0  0  0  0
   19.7422   18.2164   27.1686 H   0  0  0  0  0  0  0  0  0  0  0  0
   19.6921   17.2687   25.8193 H   0  0  0  0  0  0  0  0  0  0  0  0
  1  2  1  0  0  0  0
  1  3  1  0  0  0  0
  1  4  1  0  0  0  0
  1  5  1  0  0  0  0
  5  6  1  0  0  0  0
  5  7  1  0  0  0  0
  5  8  1  0  0  0  0
  8  9  1  0  0  0  0
  8 10  1  0  0  0  0
  8 11  1  0  0  0  0
 11 12  1  0  0  0  0
 11 13  1  0  0  0  0
 11 14  1  0  0  0  0
 14 15  1  0  0  0  0
 14 16  1  0  0  0  0
 14 17  1  0  0  0  0
 17 18  1  0  0  0  0
 17 19  1  0  0  0  0
 17 20  1  0  0  0  0
 20 21  1  0  0  0  0
 20 22  1  0  0  0  0
 20 23  1  0  0  0  0
 23 24  1  0  0  0  0
 23 25  1  0  0  0  0
 23 26  1  0  0  0  0
M  END
> <VM2 Rank>
143

> <Conf_Id>
707

> <Probability>
0.01

> <Sum Probability>
99.76

> <Delta G>
3.813

> <G>
52.074

> <E>
19.200

> <-TS>
32.874

> <U+W>
-2.262

> <U>
51.886

> <W>
-54.148

> <W(PB)>
-56.400

> <W(SA)>
2.252

> <Valence>
5.154

> <Coulomb>
46.018

> <VdW>
0.714

> <VdW6>
-8.701

> <VdW12>
9.415

> <Bond>
0.265

> <Angle>
1.544

> <Pdih>
3.345

> <Idih>
0.000

> <Tether>
0.000

$$$$
VeraChem MOL file


 26 25  0  0  0  0  0  0  0  0999 V2000     
   19.5412   20.3229   20.0373 C   0  0  0  0  0  0  0  0  0  0  0  0
   19.6903   21.2569   20.5946 H   0  0  0  0  0  0  0  0  0  0  0  0
   19.9160   20.4759   19.0170 H   0  0  0  0  0  0  0  0  0  0  0  0
   18.4621   20.1306   19.9745 H   0  0  0  0  0  0  0  0  0  0  0  0
   20.2755   19.1477   20.7169 C   0  0  0  0  0  0  0  0  0  0  0  0
   21.3549   19.3540   20.7352 H   0  0  0  0  0  0  0  0  0  0  0  0
   20.1370   18.2365   20.1181 H   0  0  0  0  0  0  0  0  0  0  0  0
   19.7659   18.9102   22.1557 C   0  0  0  0  0  0  0  0  0  0  0  0
   19.8972   19.8318   22.7329 H   0  0  0  0  0  0  0  0  0  0  0  0
   18.6876   18.7018   22.1281 H   0  0  0  0  0  0  0  0  0  0  0  0
   20.5032   17.7308   22.8365 C   0  0  0  0  0  0  0  0  0  0  0  0
   21.5832   17.9285   22.8769 H   0  0  0  0  0  0  0  0  0  0  0  0
   20.3818   16.8427   22.2009 H   0  0  0  0  0  0  0  0  0  0  0  0
   19.9733   17.3832   24.2525 C   0  0  0  0  0  0  0  0  0  0  0  0
   18.8823   17.5008   24.2929 H   0  0  0  0  0  0  0  0  0  0  0  0
   20.1569   16.3136   24.4250 H   0  0  0  0  0  0  0  0  0  0  0  0
   20.6527   18.1575   25.4136 C   0  0  0  0  0  0  0  0  0  0  0  0
   21.7345   17.9705   25.3881 H   0  0  0  0  0  0  0  0  0  0  0  0
   20.2987   17.7472   26.3687 H   0  0  0  0  0  0  0  0  0  0  0  0
   20.4159   19.6797   25.4160 C   0  0  0  0  0  0  0  0  0  0  0  0
   20.9329   20.1238   26.2710 H   0  0  0  0  0  0  0  0  0  0  0  0
   20.8313   20.1213   24.5076 H   0  0  0  0  0  0  0  0  0  0  0  0
   18.9533   20.0670   25.5124 N   0  3  0  0  0  0  0  0  0  0  0  0
   18.4132   19.6966   24.7246 H   0  0  0  0  0  0  0  0  0  0  0  0
   18.8277   21.0850   25.5161 H   0  0  0  0  0  0  0  0  0  0  0  0
   18.5224   19.7090   26.3709 H   0  0  0  0  0  0  0  0  0  0  0  0
  1  2  1  0  0  0  0
  1  3  1  0  0  0  0
  1  4  1  0  0  0  0
  1  5  1  0  0  0  0
  5  6  1  0  0  0  0
  5  7  1  0  0  0  0
  5  8  1  0  0  0  0
  8  9  1  0  0  0  0
  8 10  1  0  0  0  0
  8 11  1  0  0  0  0
 11 12  1  0  0  0  0
 11 13  1  0  0  0  0
 11 14  1  0  0  0  0
 14 15  1  0  0  0  0
 14 16  1  0  0  0  0
 14 17  1  0  0  0  0
 17 18  1  0  0  0  0
 17 19  1  0  0  0  0
 17 20  1  0  0  0  0
 20 21  1  0  0  0  0
 20 22  1  0  0  0  0
 20 23  1  0  0  0  0
 23 24  1  0  0  0  0
 23 25  1  0  0  0  0
 23 26  1  0  0  0  0
M  END
> <VM2 Rank>
144

> <Conf_Id>
1364

> <Probability>
0.01

> <Sum Probability>
99.77

> <Delta G>
3.822

> <G>
52.083

> <E>
19.214

> <-TS>
32.869

> <U+W>
-2.248

> <U>
51.830

> <W>
-54.078

> <W(PB)>
-56.359

> <W(SA)>
2.281

> <Valence>
4.864

> <Coulomb>
46.522

> <VdW>
0.444

> <VdW6>
-8.267

> <VdW12>
8.710

> <Bond>
0.239

> <Angle>
1.439

> <Pdih>
3.186

> <Idih>
0.000

> <Tether>
0.000

$$$$
VeraChem MOL file


 26 25  0  0  0  0  0  0  0  0999 V2000     
   20.3206   20.4301   20.7366 C   0  0  0  0  0  0  0  0  0  0  0  0
   20.1478   20.8341   21.7419 H   0  0  0  0  0  0  0  0  0  0  0  0
   21.3971   20.4763   20.5269 H   0  0  0  0  0  0  0  0  0  0  0  0
   19.8106   21.0904   20.0233 H   0  0  0  0  0  0  0  0  0  0  0  0
   19.7914   18.9837   20.6088 C   0  0  0  0  0  0  0  0  0  0  0  0
   19.8755   18.6679   19.5596 H   0  0  0  0  0  0  0  0  0  0  0  0
   18.7190   18.9595   20.8447 H   0  0  0  0  0  0  0  0  0  0  0  0
   20.5571   17.9664   21.4928 C   0  0  0  0  0  0  0  0  0  0  0  0
   20.1469   16.9629   21.3138 H   0  0  0  0  0  0  0  0  0  0  0  0
   21.6042   17.9258   21.1626 H   0  0  0  0  0  0  0  0  0  0  0  0
   20.5253   18.2602   23.0147 C   0  0  0  0  0  0  0  0  0  0  0  0
   21.0368   19.2103   23.2076 H   0  0  0  0  0  0  0  0  0  0  0  0
   21.1052   17.4817   23.5291 H   0  0  0  0  0  0  0  0  0  0  0  0
   19.0922   18.2985   23.6011 C   0  0  0  0  0  0  0  0  0  0  0  0
   18.5554   19.1753   23.2149 H   0  0  0  0  0  0  0  0  0  0  0  0
   18.5399   17.4178   23.2454 H   0  0  0  0  0  0  0  0  0  0  0  0
   19.0354   18.3118   25.1500 C   0  0  0  0  0  0  0  0  0  0  0  0
   19.5235   17.4173   25.5591 H   0  0  0  0  0  0  0  0  0  0  0  0
   17.9809   18.2426   25.4484 H   0  0  0  0  0  0  0  0  0  0  0  0
   19.6245   19.5809   25.8001 C   0  0  0  0  0  0  0  0  0  0  0  0
   19.3352   20.4625   25.2219 H   0  0  0  0  0  0  0  0  0  0  0  0
   19.2145   19.6871   26.8081 H   0  0  0  0  0  0  0  0  0  0  0  0
   21.1345   19.5675   25.9369 N   0  3  0  0  0  0  0  0  0  0  0  0
   21.4842   20.4277   26.3729 H   0  0  0  0  0  0  0  0  0  0  0  0
   21.5975   19.4787   25.0283 H   0  0  0  0  0  0  0  0  0  0  0  0
   21.4554   18.7865   26.5184 H   0  0  0  0  0  0  0  0  0  0  0  0
  1  2  1  0  0  0  0
  1  3  1  0  0  0  0
  1  4  1  0  0  0  0
  1  5  1  0  0  0  0
  5  6  1  0  0  0  0
  5  7  1  0  0  0  0
  5  8  1  0  0  0  0
  8  9  1  0  0  0  0
  8 10  1  0  0  0  0
  8 11  1  0  0  0  0
 11 12  1  0  0  0  0
 11 13  1  0  0  0  0
 11 14  1  0  0  0  0
 14 15  1  0  0  0  0
 14 16  1  0  0  0  0
 14 17  1  0  0  0  0
 17 18  1  0  0  0  0
 17 19  1  0  0  0  0
 17 20  1  0  0  0  0
 20 21  1  0  0  0  0
 20 22  1  0  0  0  0
 20 23  1  0  0  0  0
 23 24  1  0  0  0  0
 23 25  1  0  0  0  0
 23 26  1  0  0  0  0
M  END
> <VM2 Rank>
145

> <Conf_Id>
1563

> <Probability>
0.01

> <Sum Probability>
99.78

> <Delta G>
3.902

> <G>
52.164

> <E>
19.219

> <-TS>
32.944

> <U+W>
-2.243

> <U>
51.945

> <W>
-54.188

> <W(PB)>
-56.412

> <W(SA)>
2.224

> <Valence>
4.646

> <Coulomb>
46.716

> <VdW>
0.583

> <VdW6>
-8.945

> <VdW12>
9.527

> <Bond>
0.266

> <Angle>
1.504

> <Pdih>
2.876

> <Idih>
0.000

> <Tether>
0.000

$$$$
VeraChem MOL file


 26 25  0  0  0  0  0  0  0  0999 V2000     
   20.3935   20.1088   20.0762 C   0  0  0  0  0  0  0  0  0  0  0  0
   19.4536   20.5277   19.6938 H   0  0  0  0  0  0  0  0  0  0  0  0
   20.6732   20.6729   20.9727 H   0  0  0  0  0  0  0  0  0  0  0  0
   21.1680   20.2831   19.3181 H   0  0  0  0  0  0  0  0  0  0  0  0
   20.2468   18.5959   20.3618 C   0  0  0  0  0  0  0  0  0  0  0  0
   21.2116   18.1696   20.6702 H   0  0  0  0  0  0  0  0  0  0  0  0
   19.9844   18.0974   19.4181 H   0  0  0  0  0  0  0  0  0  0  0  0
   19.1534   18.2722   21.4124 C   0  0  0  0  0  0  0  0  0  0  0  0
   18.3674   19.0397   21.3920 H   0  0  0  0  0  0  0  0  0  0  0  0
   18.6600   17.3367   21.1144 H   0  0  0  0  0  0  0  0  0  0  0  0
   19.6751   18.0827   22.8604 C   0  0  0  0  0  0  0  0  0  0  0  0
   20.3807   17.2409   22.8855 H   0  0  0  0  0  0  0  0  0  0  0  0
   18.8242   17.7866   23.4876 H   0  0  0  0  0  0  0  0  0  0  0  0
   20.3519   19.3383   23.4635 C   0  0  0  0  0  0  0  0  0  0  0  0
   21.2558   19.5737   22.8873 H   0  0  0  0  0  0  0  0  0  0  0  0
   19.6817   20.2041   23.3718 H   0  0  0  0  0  0  0  0  0  0  0  0
   20.7617   19.1561   24.9441 C   0  0  0  0  0  0  0  0  0  0  0  0
   21.3397   20.0337   25.2629 H   0  0  0  0  0  0  0  0  0  0  0  0
   21.4290   18.2891   25.0389 H   0  0  0  0  0  0  0  0  0  0  0  0
   19.5522   18.9858   25.8826 C   0  0  0  0  0  0  0  0  0  0  0  0
   18.8878   19.8489   25.7866 H   0  0  0  0  0  0  0  0  0  0  0  0
   18.9926   18.0881   25.6082 H   0  0  0  0  0  0  0  0  0  0  0  0
   19.9464   18.8591   27.3400 N   0  3  0  0  0  0  0  0  0  0  0  0
   20.4534   19.6861   27.6720 H   0  0  0  0  0  0  0  0  0  0  0  0
   20.5523   18.0482   27.5027 H   0  0  0  0  0  0  0  0  0  0  0  0
   19.1277   18.7470   27.9479 H   0  0  0  0  0  0  0  0  0  0  0  0
  1  2  1  0  0  0  0
  1  3  1  0  0  0  0
  1  4  1  0  0  0  0
  1  5  1  0  0  0  0
  5  6  1  0  0  0  0
  5  7  1  0  0  0  0
  5  8  1  0  0  0  0
  8  9  1  0  0  0  0
  8 10  1  0  0  0  0
  8 11  1  0  0  0  0
 11 12  1  0  0  0  0
 11 13  1  0  0  0  0
 11 14  1  0  0  0  0
 14 15  1  0  0  0  0
 14 16  1  0  0  0  0
 14 17  1  0  0  0  0
 17 18  1  0  0  0  0
 17 19  1  0  0  0  0
 17 20  1  0  0  0  0
 20 21  1  0  0  0  0
 20 22  1  0  0  0  0
 20 23  1  0  0  0  0
 23 24  1  0  0  0  0
 23 25  1  0  0  0  0
 23 26  1  0  0  0  0
M  END
> <VM2 Rank>
146

> <Conf_Id>
1354

> <Probability>
0.01

> <Sum Probability>
99.79

> <Delta G>
3.904

> <G>
52.165

> <E>
19.384

> <-TS>
32.782

> <U+W>
-2.078

> <U>
51.397

> <W>
-53.475

> <W(PB)>
-55.760

> <W(SA)>
2.285

> <Valence>
5.541

> <Coulomb>
45.028

> <VdW>
0.828

> <VdW6>
-7.846

> <VdW12>
8.674

> <Bond>
0.240

> <Angle>
1.341

> <Pdih>
3.960

> <Idih>
0.000

> <Tether>
0.000

$$$$
VeraChem MOL file


 26 25  0  0  0  0  0  0  0  0999 V2000     
   18.9219   19.1381   20.0269 C   0  0  0  0  0  0  0  0  0  0  0  0
   18.9240   20.1782   19.6759 H   0  0  0  0  0  0  0  0  0  0  0  0
   18.4930   18.5186   19.2286 H   0  0  0  0  0  0  0  0  0  0  0  0
   18.2521   19.0760   20.8916 H   0  0  0  0  0  0  0  0  0  0  0  0
   20.3558   18.6677   20.3655 C   0  0  0  0  0  0  0  0  0  0  0  0
   20.9607   18.7411   19.4508 H   0  0  0  0  0  0  0  0  0  0  0  0
   20.3542   17.6041   20.6416 H   0  0  0  0  0  0  0  0  0  0  0  0
   21.0334   19.5123   21.4752 C   0  0  0  0  0  0  0  0  0  0  0  0
   22.1003   19.6058   21.2294 H   0  0  0  0  0  0  0  0  0  0  0  0
   20.6380   20.5373   21.4678 H   0  0  0  0  0  0  0  0  0  0  0  0
   20.9353   18.9140   22.9025 C   0  0  0  0  0  0  0  0  0  0  0  0
   21.5122   19.5595   23.5775 H   0  0  0  0  0  0  0  0  0  0  0  0
   21.4302   17.9332   22.9207 H   0  0  0  0  0  0  0  0  0  0  0  0
   19.4882   18.7688   23.4347 C   0  0  0  0  0  0  0  0  0  0  0  0
   18.9604   19.7285   23.3478 H   0  0  0  0  0  0  0  0  0  0  0  0
   18.9438   18.0491   22.8101 H   0  0  0  0  0  0  0  0  0  0  0  0
   19.4257   18.2751   24.8995 C   0  0  0  0  0  0  0  0  0  0  0  0
   19.9557   17.3175   24.9896 H   0  0  0  0  0  0  0  0  0  0  0  0
   18.3778   18.0804   25.1640 H   0  0  0  0  0  0  0  0  0  0  0  0
   20.0134   19.2901   25.8981 C   0  0  0  0  0  0  0  0  0  0  0  0
   21.0704   19.4587   25.6776 H   0  0  0  0  0  0  0  0  0  0  0  0
   19.4859   20.2434   25.8068 H   0  0  0  0  0  0  0  0  0  0  0  0
   19.9074   18.8331   27.3387 N   0  3  0  0  0  0  0  0  0  0  0  0
   20.3035   19.5222   27.9872 H   0  0  0  0  0  0  0  0  0  0  0  0
   20.4068   17.9519   27.4977 H   0  0  0  0  0  0  0  0  0  0  0  0
   18.9333   18.6830   27.6213 H   0  0  0  0  0  0  0  0  0  0  0  0
  1  2  1  0  0  0  0
  1  3  1  0  0  0  0
  1  4  1  0  0  0  0
  1  5  1  0  0  0  0
  5  6  1  0  0  0  0
  5  7  1  0  0  0  0
  5  8  1  0  0  0  0
  8  9  1  0  0  0  0
  8 10  1  0  0  0  0
  8 11  1  0  0  0  0
 11 12  1  0  0  0  0
 11 13  1  0  0  0  0
 11 14  1  0  0  0  0
 14 15  1  0  0  0  0
 14 16  1  0  0  0  0
 14 17  1  0  0  0  0
 17 18  1  0  0  0  0
 17 19  1  0  0  0  0
 17 20  1  0  0  0  0
 20 21  1  0  0  0  0
 20 22  1  0  0  0  0
 20 23  1  0  0  0  0
 23 24  1  0  0  0  0
 23 25  1  0  0  0  0
 23 26  1  0  0  0  0
M  END
> <VM2 Rank>
147

> <Conf_Id>
1296

> <Probability>
0.01

> <Sum Probability>
99.80

> <Delta G>
3.913

> <G>
52.174

> <E>
19.392

> <-TS>
32.782

> <U+W>
-2.070

> <U>
51.397

> <W>
-53.467

> <W(PB)>
-55.757

> <W(SA)>
2.290

> <Valence>
5.541

> <Coulomb>
45.028

> <VdW>
0.828

> <VdW6>
-7.846

> <VdW12>
8.674

> <Bond>
0.240

> <Angle>
1.341

> <Pdih>
3.960

> <Idih>
0.000

> <Tether>
0.000

$$$$
VeraChem MOL file


 26 25  0  0  0  0  0  0  0  0999 V2000     
   19.0651   18.3772   20.2226 C   0  0  0  0  0  0  0  0  0  0  0  0
   18.8486   17.6909   21.0505 H   0  0  0  0  0  0  0  0  0  0  0  0
   18.3779   19.2307   20.2862 H   0  0  0  0  0  0  0  0  0  0  0  0
   18.8504   17.8421   19.2886 H   0  0  0  0  0  0  0  0  0  0  0  0
   20.5370   18.8437   20.2509 C   0  0  0  0  0  0  0  0  0  0  0  0
   20.7501   19.3937   19.3237 H   0  0  0  0  0  0  0  0  0  0  0  0
   21.1976   17.9655   20.2422 H   0  0  0  0  0  0  0  0  0  0  0  0
   20.8962   19.7515   21.4550 C   0  0  0  0  0  0  0  0  0  0  0  0
   21.9449   20.0574   21.3364 H   0  0  0  0  0  0  0  0  0  0  0  0
   20.3110   20.6806   21.4157 H   0  0  0  0  0  0  0  0  0  0  0  0
   20.7436   19.0767   22.8431 C   0  0  0  0  0  0  0  0  0  0  0  0
   21.5509   19.4427   23.4914 H   0  0  0  0  0  0  0  0  0  0  0  0
   20.8941   17.9922   22.7521 H   0  0  0  0  0  0  0  0  0  0  0  0
   19.3850   19.3791   23.5264 C   0  0  0  0  0  0  0  0  0  0  0  0
   19.2966   20.4596   23.7051 H   0  0  0  0  0  0  0  0  0  0  0  0
   18.5588   19.1131   22.8565 H   0  0  0  0  0  0  0  0  0  0  0  0
   19.1973   18.6214   24.8617 C   0  0  0  0  0  0  0  0  0  0  0  0
   19.2570   17.5395   24.6830 H   0  0  0  0  0  0  0  0  0  0  0  0
   18.1881   18.8212   25.2459 H   0  0  0  0  0  0  0  0  0  0  0  0
   20.2313   19.0278   25.9284 C   0  0  0  0  0  0  0  0  0  0  0  0
   21.2388   18.7924   25.5760 H   0  0  0  0  0  0  0  0  0  0  0  0
   20.1714   20.1048   26.1072 H   0  0  0  0  0  0  0  0  0  0  0  0
   20.0256   18.3216   27.2529 N   0  3  0  0  0  0  0  0  0  0  0  0
   19.1043   18.5239   27.6547 H   0  0  0  0  0  0  0  0  0  0  0  0
   20.7236   18.6060   27.9488 H   0  0  0  0  0  0  0  0  0  0  0  0
   20.0964   17.3032   27.1579 H   0  0  0  0  0  0  0  0  0  0  0  0
  1  2  1  0  0  0  0
  1  3  1  0  0  0  0
  1  4  1  0  0  0  0
  1  5  1  0  0  0  0
  5  6  1  0  0  0  0
  5  7  1  0  0  0  0
  5  8  1  0  0  0  0
  8  9  1  0  0  0  0
  8 10  1  0  0  0  0
  8 11  1  0  0  0  0
 11 12  1  0  0  0  0
 11 13  1  0  0  0  0
 11 14  1  0  0  0  0
 14 15  1  0  0  0  0
 14 16  1  0  0  0  0
 14 17  1  0  0  0  0
 17 18  1  0  0  0  0
 17 19  1  0  0  0  0
 17 20  1  0  0  0  0
 20 21  1  0  0  0  0
 20 22  1  0  0  0  0
 20 23  1  0  0  0  0
 23 24  1  0  0  0  0
 23 25  1  0  0  0  0
 23 26  1  0  0  0  0
M  END
> <VM2 Rank>
148

> <Conf_Id>
819

> <Probability>
0.01

> <Sum Probability>
99.81

> <Delta G>
3.922

> <G>
52.183

> <E>
19.359

> <-TS>
32.824

> <U+W>
-2.102

> <U>
51.310

> <W>
-53.412

> <W(PB)>
-55.696

> <W(SA)>
2.284

> <Valence>
5.462

> <Coulomb>
45.075

> <VdW>
0.773

> <VdW6>
-7.907

> <VdW12>
8.680

> <Bond>
0.240

> <Angle>
1.238

> <Pdih>
3.984

> <Idih>
0.000

> <Tether>
0.000

$$$$
VeraChem MOL file


 26 25  0  0  0  0  0  0  0  0999 V2000     
   18.6248   19.3117   20.6798 C   0  0  0  0  0  0  0  0  0  0  0  0
   18.1692   18.3477   20.4190 H   0  0  0  0  0  0  0  0  0  0  0  0
   18.2748   19.5992   21.6790 H   0  0  0  0  0  0  0  0  0  0  0  0
   18.2521   20.0623   19.9709 H   0  0  0  0  0  0  0  0  0  0  0  0
   20.1671   19.2311   20.6212 C   0  0  0  0  0  0  0  0  0  0  0  0
   20.5997   20.1992   20.9073 H   0  0  0  0  0  0  0  0  0  0  0  0
   20.4730   19.0612   19.5795 H   0  0  0  0  0  0  0  0  0  0  0  0
   20.7593   18.0996   21.4997 C   0  0  0  0  0  0  0  0  0  0  0  0
   20.4005   17.1319   21.1227 H   0  0  0  0  0  0  0  0  0  0  0  0
   21.8503   18.0859   21.3710 H   0  0  0  0  0  0  0  0  0  0  0  0
   20.4309   18.1983   23.0117 C   0  0  0  0  0  0  0  0  0  0  0  0
   20.8943   17.3430   23.5224 H   0  0  0  0  0  0  0  0  0  0  0  0
   19.3484   18.0973   23.1512 H   0  0  0  0  0  0  0  0  0  0  0  0
   20.9314   19.5117   23.6624 C   0  0  0  0  0  0  0  0  0  0  0  0
   21.9738   19.6826   23.3600 H   0  0  0  0  0  0  0  0  0  0  0  0
   20.3548   20.3623   23.2748 H   0  0  0  0  0  0  0  0  0  0  0  0
   20.8694   19.5219   25.2111 C   0  0  0  0  0  0  0  0  0  0  0  0
   21.3328   20.4542   25.5602 H   0  0  0  0  0  0  0  0  0  0  0  0
   21.4806   18.7086   25.6245 H   0  0  0  0  0  0  0  0  0  0  0  0
   19.4422   19.4607   25.7939 C   0  0  0  0  0  0  0  0  0  0  0  0
   19.4586   19.8486   26.8161 H   0  0  0  0  0  0  0  0  0  0  0  0
   18.7727   20.0912   25.2028 H   0  0  0  0  0  0  0  0  0  0  0  0
   18.8558   18.0641   25.8612 N   0  3  0  0  0  0  0  0  0  0  0  0
   19.4203   17.4441   26.4510 H   0  0  0  0  0  0  0  0  0  0  0  0
   18.7981   17.6313   24.9352 H   0  0  0  0  0  0  0  0  0  0  0  0
   17.9081   18.0683   26.2537 H   0  0  0  0  0  0  0  0  0  0  0  0
  1  2  1  0  0  0  0
  1  3  1  0  0  0  0
  1  4  1  0  0  0  0
  1  5  1  0  0  0  0
  5  6  1  0  0  0  0
  5  7  1  0  0  0  0
  5  8  1  0  0  0  0
  8  9  1  0  0  0  0
  8 10  1  0  0  0  0
  8 11  1  0  0  0  0
 11 12  1  0  0  0  0
 11 13  1  0  0  0  0
 11 14  1  0  0  0  0
 14 15  1  0  0  0  0
 14 16  1  0  0  0  0
 14 17  1  0  0  0  0
 17 18  1  0  0  0  0
 17 19  1  0  0  0  0
 17 20  1  0  0  0  0
 20 21  1  0  0  0  0
 20 22  1  0  0  0  0
 20 23  1  0  0  0  0
 23 24  1  0  0  0  0
 23 25  1  0  0  0  0
 23 26  1  0  0  0  0
M  END
> <VM2 Rank>
149

> <Conf_Id>
191

> <Probability>
0.01

> <Sum Probability>
99.82

> <Delta G>
3.944

> <G>
52.205

> <E>
19.260

> <-TS>
32.945

> <U+W>
-2.202

> <U>
51.945

> <W>
-54.147

> <W(PB)>
-56.366

> <W(SA)>
2.219

> <Valence>
4.646

> <Coulomb>
46.716

> <VdW>
0.583

> <VdW6>
-8.945

> <VdW12>
9.528

> <Bond>
0.266

> <Angle>
1.504

> <Pdih>
2.877

> <Idih>
0.000

> <Tether>
0.000

$$$$
VeraChem MOL file


 26 25  0  0  0  0  0  0  0  0999 V2000     
   18.4308   19.3573   21.2862 C   0  0  0  0  0  0  0  0  0  0  0  0
   17.8721   18.4197   21.4031 H   0  0  0  0  0  0  0  0  0  0  0  0
   18.5105   19.8307   22.2702 H   0  0  0  0  0  0  0  0  0  0  0  0
   17.8338   20.0227   20.6492 H   0  0  0  0  0  0  0  0  0  0  0  0
   19.8157   19.1010   20.6478 C   0  0  0  0  0  0  0  0  0  0  0  0
   20.3548   20.0491   20.5135 H   0  0  0  0  0  0  0  0  0  0  0  0
   19.6502   18.7028   19.6369 H   0  0  0  0  0  0  0  0  0  0  0  0
   20.6910   18.0898   21.4332 C   0  0  0  0  0  0  0  0  0  0  0  0
   20.0619   17.3330   21.9196 H   0  0  0  0  0  0  0  0  0  0  0  0
   21.2961   17.5346   20.7032 H   0  0  0  0  0  0  0  0  0  0  0  0
   21.6762   18.7269   22.4506 C   0  0  0  0  0  0  0  0  0  0  0  0
   22.3511   19.4057   21.9111 H   0  0  0  0  0  0  0  0  0  0  0  0
   22.3179   17.9338   22.8585 H   0  0  0  0  0  0  0  0  0  0  0  0
   21.0356   19.4995   23.6302 C   0  0  0  0  0  0  0  0  0  0  0  0
   21.8429   19.9256   24.2418 H   0  0  0  0  0  0  0  0  0  0  0  0
   20.4662   20.3574   23.2512 H   0  0  0  0  0  0  0  0  0  0  0  0
   20.1425   18.6169   24.5337 C   0  0  0  0  0  0  0  0  0  0  0  0
   20.7255   17.7652   24.9083 H   0  0  0  0  0  0  0  0  0  0  0  0
   19.3064   18.2044   23.9559 H   0  0  0  0  0  0  0  0  0  0  0  0
   19.5847   19.4180   25.7230 C   0  0  0  0  0  0  0  0  0  0  0  0
   20.4107   19.8151   26.3192 H   0  0  0  0  0  0  0  0  0  0  0  0
   18.9911   20.2589   25.3541 H   0  0  0  0  0  0  0  0  0  0  0  0
   18.7046   18.5895   26.6364 N   0  3  0  0  0  0  0  0  0  0  0  0
   18.3445   19.1421   27.4221 H   0  0  0  0  0  0  0  0  0  0  0  0
   19.2128   17.7952   27.0389 H   0  0  0  0  0  0  0  0  0  0  0  0
   17.8914   18.2086   26.1418 H   0  0  0  0  0  0  0  0  0  0  0  0
  1  2  1  0  0  0  0
  1  3  1  0  0  0  0
  1  4  1  0  0  0  0
  1  5  1  0  0  0  0
  5  6  1  0  0  0  0
  5  7  1  0  0  0  0
  5  8  1  0  0  0  0
  8  9  1  0  0  0  0
  8 10  1  0  0  0  0
  8 11  1  0  0  0  0
 11 12  1  0  0  0  0
 11 13  1  0  0  0  0
 11 14  1  0  0  0  0
 14 15  1  0  0  0  0
 14 16  1  0  0  0  0
 14 17  1  0  0  0  0
 17 18  1  0  0  0  0
 17 19  1  0  0  0  0
 17 20  1  0  0  0  0
 20 21  1  0  0  0  0
 20 22  1  0  0  0  0
 20 23  1  0  0  0  0
 23 24  1  0  0  0  0
 23 25  1  0  0  0  0
 23 26  1  0  0  0  0
M  END
> <VM2 Rank>
150

> <Conf_Id>
284

> <Probability>
0.01

> <Sum Probability>
99.83

> <Delta G>
4.050

> <G>
52.311

> <E>
19.139

> <-TS>
33.172

> <U+W>
-2.322

> <U>
51.692

> <W>
-54.014

> <W(PB)>
-56.249

> <W(SA)>
2.234

> <Valence>
5.738

> <Coulomb>
45.543

> <VdW>
0.411

> <VdW6>
-8.566

> <VdW12>
8.978

> <Bond>
0.261

> <Angle>
1.836

> <Pdih>
3.641

> <Idih>
0.000

> <Tether>
0.000

$$$$
VeraChem MOL file


 26 25  0  0  0  0  0  0  0  0999 V2000     
   19.6949   19.7054   19.8156 C   0  0  0  0  0  0  0  0  0  0  0  0
   19.4387   19.5059   18.7671 H   0  0  0  0  0  0  0  0  0  0  0  0
   19.1196   20.5822   20.1401 H   0  0  0  0  0  0  0  0  0  0  0  0
   20.7608   19.9613   19.8500 H   0  0  0  0  0  0  0  0  0  0  0  0
   19.3739   18.4740   20.6933 C   0  0  0  0  0  0  0  0  0  0  0  0
   19.9854   17.6192   20.3721 H   0  0  0  0  0  0  0  0  0  0  0  0
   18.3277   18.1846   20.5217 H   0  0  0  0  0  0  0  0  0  0  0  0
   19.5750   18.7239   22.2078 C   0  0  0  0  0  0  0  0  0  0  0  0
   18.9811   19.5943   22.5187 H   0  0  0  0  0  0  0  0  0  0  0  0
   19.1721   17.8558   22.7440 H   0  0  0  0  0  0  0  0  0  0  0  0
   21.0575   18.9233   22.6096 C   0  0  0  0  0  0  0  0  0  0  0  0
   21.5012   19.7143   21.9922 H   0  0  0  0  0  0  0  0  0  0  0  0
   21.6216   18.0080   22.3838 H   0  0  0  0  0  0  0  0  0  0  0  0
   21.2759   19.3110   24.0953 C   0  0  0  0  0  0  0  0  0  0  0  0
   22.3544   19.4653   24.2384 H   0  0  0  0  0  0  0  0  0  0  0  0
   20.8118   20.2845   24.2997 H   0  0  0  0  0  0  0  0  0  0  0  0
   20.8051   18.2520   25.1279 C   0  0  0  0  0  0  0  0  0  0  0  0
   21.4108   18.3491   26.0387 H   0  0  0  0  0  0  0  0  0  0  0  0
   21.0048   17.2440   24.7408 H   0  0  0  0  0  0  0  0  0  0  0  0
   19.3185   18.3637   25.5279 C   0  0  0  0  0  0  0  0  0  0  0  0
   18.6808   18.3059   24.6442 H   0  0  0  0  0  0  0  0  0  0  0  0
   19.0601   17.5300   26.1864 H   0  0  0  0  0  0  0  0  0  0  0  0
   18.9804   19.6457   26.2634 N   0  3  0  0  0  0  0  0  0  0  0  0
   17.9908   19.6816   26.5311 H   0  0  0  0  0  0  0  0  0  0  0  0
   19.1665   20.4736   25.6893 H   0  0  0  0  0  0  0  0  0  0  0  0
   19.5270   19.7454   27.1249 H   0  0  0  0  0  0  0  0  0  0  0  0
  1  2  1  0  0  0  0
  1  3  1  0  0  0  0
  1  4  1  0  0  0  0
  1  5  1  0  0  0  0
  5  6  1  0  0  0  0
  5  7  1  0  0  0  0
  5  8  1  0  0  0  0
  8  9  1  0  0  0  0
  8 10  1  0  0  0  0
  8 11  1  0  0  0  0
 11 12  1  0  0  0  0
 11 13  1  0  0  0  0
 11 14  1  0  0  0  0
 14 15  1  0  0  0  0
 14 16  1  0  0  0  0
 14 17  1  0  0  0  0
 17 18  1  0  0  0  0
 17 19  1  0  0  0  0
 17 20  1  0  0  0  0
 20 21  1  0  0  0  0
 20 22  1  0  0  0  0
 20 23  1  0  0  0  0
 23 24  1  0  0  0  0
 23 25  1  0  0  0  0
 23 26  1  0  0  0  0
M  END
> <VM2 Rank>
151

> <Conf_Id>
228

> <Probability>
0.01

> <Sum Probability>
99.84

> <Delta G>
4.091

> <G>
52.352

> <E>
19.546

> <-TS>
32.806

> <U+W>
-1.916

> <U>
52.150

> <W>
-54.066

> <W(PB)>
-56.339

> <W(SA)>
2.273

> <Valence>
5.368

> <Coulomb>
45.965

> <VdW>
0.817

> <VdW6>
-8.546

> <VdW12>
9.363

> <Bond>
0.273

> <Angle>
1.632

> <Pdih>
3.463

> <Idih>
0.000

> <Tether>
0.000

$$$$
VeraChem MOL file


 26 25  0  0  0  0  0  0  0  0999 V2000     
   20.3255   20.6078   21.3494 C   0  0  0  0  0  0  0  0  0  0  0  0
   21.4005   20.7483   21.5209 H   0  0  0  0  0  0  0  0  0  0  0  0
   19.9780   21.4377   20.7208 H   0  0  0  0  0  0  0  0  0  0  0  0
   19.8136   20.6907   22.3138 H   0  0  0  0  0  0  0  0  0  0  0  0
   20.0475   19.2540   20.6555 C   0  0  0  0  0  0  0  0  0  0  0  0
   20.5253   19.2803   19.6661 H   0  0  0  0  0  0  0  0  0  0  0  0
   18.9714   19.1362   20.4673 H   0  0  0  0  0  0  0  0  0  0  0  0
   20.5968   18.0277   21.4300 C   0  0  0  0  0  0  0  0  0  0  0  0
   20.9036   17.2756   20.6900 H   0  0  0  0  0  0  0  0  0  0  0  0
   21.5162   18.2928   21.9682 H   0  0  0  0  0  0  0  0  0  0  0  0
   19.5779   17.3421   22.3805 C   0  0  0  0  0  0  0  0  0  0  0  0
   20.0359   16.4278   22.7823 H   0  0  0  0  0  0  0  0  0  0  0  0
   18.7148   17.0058   21.7897 H   0  0  0  0  0  0  0  0  0  0  0  0
   19.0645   18.1987   23.5643 C   0  0  0  0  0  0  0  0  0  0  0  0
   18.5171   19.0711   23.1861 H   0  0  0  0  0  0  0  0  0  0  0  0
   18.3279   17.6059   24.1243 H   0  0  0  0  0  0  0  0  0  0  0  0
   20.1835   18.6440   24.5350 C   0  0  0  0  0  0  0  0  0  0  0  0
   20.9172   19.2675   24.0097 H   0  0  0  0  0  0  0  0  0  0  0  0
   20.7199   17.7615   24.9080 H   0  0  0  0  0  0  0  0  0  0  0  0
   19.6108   19.4353   25.7238 C   0  0  0  0  0  0  0  0  0  0  0  0
   19.0881   20.3230   25.3574 H   0  0  0  0  0  0  0  0  0  0  0  0
   18.8944   18.8143   26.2684 H   0  0  0  0  0  0  0  0  0  0  0  0
   20.6745   19.8895   26.7024 N   0  3  0  0  0  0  0  0  0  0  0  0
   20.2714   20.4138   27.4866 H   0  0  0  0  0  0  0  0  0  0  0  0
   21.3664   20.5019   26.2581 H   0  0  0  0  0  0  0  0  0  0  0  0
   21.1863   19.0975   27.1049 H   0  0  0  0  0  0  0  0  0  0  0  0
  1  2  1  0  0  0  0
  1  3  1  0  0  0  0
  1  4  1  0  0  0  0
  1  5  1  0  0  0  0
  5  6  1  0  0  0  0
  5  7  1  0  0  0  0
  5  8  1  0  0  0  0
  8  9  1  0  0  0  0
  8 10  1  0  0  0  0
  8 11  1  0  0  0  0
 11 12  1  0  0  0  0
 11 13  1  0  0  0  0
 11 14  1  0  0  0  0
 14 15  1  0  0  0  0
 14 16  1  0  0  0  0
 14 17  1  0  0  0  0
 17 18  1  0  0  0  0
 17 19  1  0  0  0  0
 17 20  1  0  0  0  0
 20 21  1  0  0  0  0
 20 22  1  0  0  0  0
 20 23  1  0  0  0  0
 23 24  1  0  0  0  0
 23 25  1  0  0  0  0
 23 26  1  0  0  0  0
M  END
> <VM2 Rank>
152

> <Conf_Id>
531

> <Probability>
0.01

> <Sum Probability>
99.84

> <Delta G>
4.099

> <G>
52.360

> <E>
19.188

> <-TS>
33.172

> <U+W>
-2.274

> <U>
51.692

> <W>
-53.966

> <W(PB)>
-56.182

> <W(SA)>
2.216

> <Valence>
5.738

> <Coulomb>
45.543

> <VdW>
0.411

> <VdW6>
-8.566

> <VdW12>
8.978

> <Bond>
0.261

> <Angle>
1.835

> <Pdih>
3.642

> <Idih>
0.000

> <Tether>
0.000

$$$$
VeraChem MOL file


 26 25  0  0  0  0  0  0  0  0999 V2000     
   20.0200   19.9476   20.2947 C   0  0  0  0  0  0  0  0  0  0  0  0
   20.2591   19.2592   19.4737 H   0  0  0  0  0  0  0  0  0  0  0  0
   18.9448   19.8766   20.5010 H   0  0  0  0  0  0  0  0  0  0  0  0
   20.2235   20.9687   19.9472 H   0  0  0  0  0  0  0  0  0  0  0  0
   20.8594   19.6258   21.5516 C   0  0  0  0  0  0  0  0  0  0  0  0
   20.5909   20.3189   22.3589 H   0  0  0  0  0  0  0  0  0  0  0  0
   21.9181   19.8181   21.3284 H   0  0  0  0  0  0  0  0  0  0  0  0
   20.7134   18.1575   22.0267 C   0  0  0  0  0  0  0  0  0  0  0  0
   21.0680   17.4944   21.2257 H   0  0  0  0  0  0  0  0  0  0  0  0
   21.3903   17.9756   22.8706 H   0  0  0  0  0  0  0  0  0  0  0  0
   19.2738   17.7283   22.4145 C   0  0  0  0  0  0  0  0  0  0  0  0
   19.2959   16.6771   22.7330 H   0  0  0  0  0  0  0  0  0  0  0  0
   18.6446   17.7442   21.5147 H   0  0  0  0  0  0  0  0  0  0  0  0
   18.5784   18.5709   23.5180 C   0  0  0  0  0  0  0  0  0  0  0  0
   18.4843   19.6194   23.2057 H   0  0  0  0  0  0  0  0  0  0  0  0
   17.5478   18.2007   23.6086 H   0  0  0  0  0  0  0  0  0  0  0  0
   19.2360   18.4826   24.9187 C   0  0  0  0  0  0  0  0  0  0  0  0
   19.5776   17.4568   25.1101 H   0  0  0  0  0  0  0  0  0  0  0  0
   18.4709   18.7003   25.6757 H   0  0  0  0  0  0  0  0  0  0  0  0
   20.3971   19.4757   25.1150 C   0  0  0  0  0  0  0  0  0  0  0  0
   21.1922   19.2749   24.3951 H   0  0  0  0  0  0  0  0  0  0  0  0
   20.0379   20.4955   24.9525 H   0  0  0  0  0  0  0  0  0  0  0  0
   21.0030   19.4107   26.5019 N   0  3  0  0  0  0  0  0  0  0  0  0
   21.3843   18.4818   26.7090 H   0  0  0  0  0  0  0  0  0  0  0  0
   20.3133   19.6227   27.2303 H   0  0  0  0  0  0  0  0  0  0  0  0
   21.7713   20.0810   26.6143 H   0  0  0  0  0  0  0  0  0  0  0  0
  1  2  1  0  0  0  0
  1  3  1  0  0  0  0
  1  4  1  0  0  0  0
  1  5  1  0  0  0  0
  5  6  1  0  0  0  0
  5  7  1  0  0  0  0
  5  8  1  0  0  0  0
  8  9  1  0  0  0  0
  8 10  1  0  0  0  0
  8 11  1  0  0  0  0
 11 12  1  0  0  0  0
 11 13  1  0  0  0  0
 11 14  1  0  0  0  0
 14 15  1  0  0  0  0
 14 16  1  0  0  0  0
 14 17  1  0  0  0  0
 17 18  1  0  0  0  0
 17 19  1  0  0  0  0
 17 20  1  0  0  0  0
 20 21  1  0  0  0  0
 20 22  1  0  0  0  0
 20 23  1  0  0  0  0
 23 24  1  0  0  0  0
 23 25  1  0  0  0  0
 23 26  1  0  0  0  0
M  END
> <VM2 Rank>
153

> <Conf_Id>
1338

> <Probability>
0.01

> <Sum Probability>
99.85

> <Delta G>
4.113

> <G>
52.374

> <E>
18.963

> <-TS>
33.411

> <U+W>
-2.499

> <U>
51.820

> <W>
-54.320

> <W(PB)>
-56.541

> <W(SA)>
2.221

> <Valence>
5.497

> <Coulomb>
46.010

> <VdW>
0.313

> <VdW6>
-9.491

> <VdW12>
9.804

> <Bond>
0.285

> <Angle>
2.062

> <Pdih>
3.150

> <Idih>
0.000

> <Tether>
0.000

$$$$
VeraChem MOL file


 26 25  0  0  0  0  0  0  0  0999 V2000     
   21.2093   18.9534   20.2676 C   0  0  0  0  0  0  0  0  0  0  0  0
   21.7993   19.2725   21.1358 H   0  0  0  0  0  0  0  0  0  0  0  0
   21.4402   17.9002   20.0619 H   0  0  0  0  0  0  0  0  0  0  0  0
   21.5433   19.5455   19.4058 H   0  0  0  0  0  0  0  0  0  0  0  0
   19.6959   19.1536   20.5080 C   0  0  0  0  0  0  0  0  0  0  0  0
   19.1586   18.9403   19.5734 H   0  0  0  0  0  0  0  0  0  0  0  0
   19.4928   20.2087   20.7341 H   0  0  0  0  0  0  0  0  0  0  0  0
   19.1213   18.2434   21.6238 C   0  0  0  0  0  0  0  0  0  0  0  0
   18.0446   18.4391   21.7210 H   0  0  0  0  0  0  0  0  0  0  0  0
   19.2076   17.1964   21.3019 H   0  0  0  0  0  0  0  0  0  0  0  0
   19.7885   18.3877   23.0167 C   0  0  0  0  0  0  0  0  0  0  0  0
   20.8482   18.1070   22.9549 H   0  0  0  0  0  0  0  0  0  0  0  0
   19.3120   17.6600   23.6842 H   0  0  0  0  0  0  0  0  0  0  0  0
   19.6514   19.8051   23.6269 C   0  0  0  0  0  0  0  0  0  0  0  0
   20.0553   20.5451   22.9245 H   0  0  0  0  0  0  0  0  0  0  0  0
   18.5874   20.0484   23.7524 H   0  0  0  0  0  0  0  0  0  0  0  0
   20.3871   19.9943   24.9784 C   0  0  0  0  0  0  0  0  0  0  0  0
   20.2883   21.0486   25.2691 H   0  0  0  0  0  0  0  0  0  0  0  0
   21.4636   19.8157   24.8559 H   0  0  0  0  0  0  0  0  0  0  0  0
   19.8362   19.1359   26.1359 C   0  0  0  0  0  0  0  0  0  0  0  0
   20.0955   19.6115   27.0857 H   0  0  0  0  0  0  0  0  0  0  0  0
   18.7462   19.0802   26.0713 H   0  0  0  0  0  0  0  0  0  0  0  0
   20.3913   17.7255   26.1837 N   0  3  0  0  0  0  0  0  0  0  0  0
   20.1847   17.2055   25.3264 H   0  0  0  0  0  0  0  0  0  0  0  0
   19.9991   17.1891   26.9653 H   0  0  0  0  0  0  0  0  0  0  0  0
   21.4097   17.7227   26.3015 H   0  0  0  0  0  0  0  0  0  0  0  0
  1  2  1  0  0  0  0
  1  3  1  0  0  0  0
  1  4  1  0  0  0  0
  1  5  1  0  0  0  0
  5  6  1  0  0  0  0
  5  7  1  0  0  0  0
  5  8  1  0  0  0  0
  8  9  1  0  0  0  0
  8 10  1  0  0  0  0
  8 11  1  0  0  0  0
 11 12  1  0  0  0  0
 11 13  1  0  0  0  0
 11 14  1  0  0  0  0
 14 15  1  0  0  0  0
 14 16  1  0  0  0  0
 14 17  1  0  0  0  0
 17 18  1  0  0  0  0
 17 19  1  0  0  0  0
 17 20  1  0  0  0  0
 20 21  1  0  0  0  0
 20 22  1  0  0  0  0
 20 23  1  0  0  0  0
 23 24  1  0  0  0  0
 23 25  1  0  0  0  0
 23 26  1  0  0  0  0
M  END
> <VM2 Rank>
154

> <Conf_Id>
726

> <Probability>
0.01

> <Sum Probability>
99.86

> <Delta G>
4.163

> <G>
52.424

> <E>
19.579

> <-TS>
32.845

> <U+W>
-1.882

> <U>
52.060

> <W>
-53.943

> <W(PB)>
-56.191

> <W(SA)>
2.248

> <Valence>
4.855

> <Coulomb>
46.487

> <VdW>
0.717

> <VdW6>
-8.768

> <VdW12>
9.485

> <Bond>
0.277

> <Angle>
1.730

> <Pdih>
2.848

> <Idih>
0.000

> <Tether>
0.000

$$$$
VeraChem MOL file


 26 25  0  0  0  0  0  0  0  0999 V2000     
   19.6526   17.9279   20.2157 C   0  0  0  0  0  0  0  0  0  0  0  0
   19.0871   17.4858   21.0454 H   0  0  0  0  0  0  0  0  0  0  0  0
   19.0176   17.8816   19.3216 H   0  0  0  0  0  0  0  0  0  0  0  0
   20.5383   17.3060   20.0318 H   0  0  0  0  0  0  0  0  0  0  0  0
   20.0534   19.3891   20.5199 C   0  0  0  0  0  0  0  0  0  0  0  0
   19.1541   19.9856   20.7228 H   0  0  0  0  0  0  0  0  0  0  0  0
   20.5042   19.8267   19.6183 H   0  0  0  0  0  0  0  0  0  0  0  0
   21.0633   19.5227   21.6887 C   0  0  0  0  0  0  0  0  0  0  0  0
   22.0055   19.0396   21.3953 H   0  0  0  0  0  0  0  0  0  0  0  0
   21.3030   20.5856   21.8298 H   0  0  0  0  0  0  0  0  0  0  0  0
   20.6034   18.9246   23.0439 C   0  0  0  0  0  0  0  0  0  0  0  0
   21.4280   19.0541   23.7549 H   0  0  0  0  0  0  0  0  0  0  0  0
   20.4469   17.8427   22.9416 H   0  0  0  0  0  0  0  0  0  0  0  0
   19.3276   19.5918   23.6161 C   0  0  0  0  0  0  0  0  0  0  0  0
   19.5172   20.6610   23.7834 H   0  0  0  0  0  0  0  0  0  0  0  0
   18.5219   19.5349   22.8732 H   0  0  0  0  0  0  0  0  0  0  0  0
   18.8015   18.9498   24.9254 C   0  0  0  0  0  0  0  0  0  0  0  0
   18.5473   17.8947   24.7586 H   0  0  0  0  0  0  0  0  0  0  0  0
   17.8589   19.4483   25.1880 H   0  0  0  0  0  0  0  0  0  0  0  0
   19.7526   19.0808   26.1331 C   0  0  0  0  0  0  0  0  0  0  0  0
   20.2359   20.0614   26.1210 H   0  0  0  0  0  0  0  0  0  0  0  0
   19.1697   19.0016   27.0548 H   0  0  0  0  0  0  0  0  0  0  0  0
   20.8267   18.0122   26.1982 N   0  3  0  0  0  0  0  0  0  0  0  0
   21.4253   18.0227   25.3678 H   0  0  0  0  0  0  0  0  0  0  0  0
   20.4227   17.0725   26.2684 H   0  0  0  0  0  0  0  0  0  0  0  0
   21.4371   18.1362   27.0133 H   0  0  0  0  0  0  0  0  0  0  0  0
  1  2  1  0  0  0  0
  1  3  1  0  0  0  0
  1  4  1  0  0  0  0
  1  5  1  0  0  0  0
  5  6  1  0  0  0  0
  5  7  1  0  0  0  0
  5  8  1  0  0  0  0
  8  9  1  0  0  0  0
  8 10  1  0  0  0  0
  8 11  1  0  0  0  0
 11 12  1  0  0  0  0
 11 13  1  0  0  0  0
 11 14  1  0  0  0  0
 14 15  1  0  0  0  0
 14 16  1  0  0  0  0
 14 17  1  0  0  0  0
 17 18  1  0  0  0  0
 17 19  1  0  0  0  0
 17 20  1  0  0  0  0
 20 21  1  0  0  0  0
 20 22  1  0  0  0  0
 20 23  1  0  0  0  0
 23 24  1  0  0  0  0
 23 25  1  0  0  0  0
 23 26  1  0  0  0  0
M  END
> <VM2 Rank>
155

> <Conf_Id>
1610

> <Probability>
0.01

> <Sum Probability>
99.86

> <Delta G>
4.175

> <G>
52.436

> <E>
19.591

> <-TS>
32.845

> <U+W>
-1.871

> <U>
52.060

> <W>
-53.930

> <W(PB)>
-56.175

> <W(SA)>
2.245

> <Valence>
4.855

> <Coulomb>
46.488

> <VdW>
0.717

> <VdW6>
-8.768

> <VdW12>
9.485

> <Bond>
0.277

> <Angle>
1.730

> <Pdih>
2.847

> <Idih>
0.000

> <Tether>
0.000

$$$$
VeraChem MOL file


 26 25  0  0  0  0  0  0  0  0999 V2000     
   20.9738   17.7003   20.9662 C   0  0  0  0  0  0  0  0  0  0  0  0
   20.4589   17.3995   20.0446 H   0  0  0  0  0  0  0  0  0  0  0  0
   22.0143   17.3581   20.8959 H   0  0  0  0  0  0  0  0  0  0  0  0
   20.5066   17.1712   21.8053 H   0  0  0  0  0  0  0  0  0  0  0  0
   20.9194   19.2337   21.1541 C   0  0  0  0  0  0  0  0  0  0  0  0
   21.4660   19.7064   20.3262 H   0  0  0  0  0  0  0  0  0  0  0  0
   21.4546   19.5259   22.0663 H   0  0  0  0  0  0  0  0  0  0  0  0
   19.4779   19.7984   21.1742 C   0  0  0  0  0  0  0  0  0  0  0  0
   19.5290   20.8947   21.2247 H   0  0  0  0  0  0  0  0  0  0  0  0
   18.9996   19.5681   20.2122 H   0  0  0  0  0  0  0  0  0  0  0  0
   18.5594   19.2860   22.3164 C   0  0  0  0  0  0  0  0  0  0  0  0
   18.4211   18.1990   22.2470 H   0  0  0  0  0  0  0  0  0  0  0  0
   17.5623   19.7149   22.1454 H   0  0  0  0  0  0  0  0  0  0  0  0
   19.0080   19.6897   23.7458 C   0  0  0  0  0  0  0  0  0  0  0  0
   19.5470   20.6468   23.7166 H   0  0  0  0  0  0  0  0  0  0  0  0
   18.1083   19.8677   24.3513 H   0  0  0  0  0  0  0  0  0  0  0  0
   19.8598   18.6145   24.4617 C   0  0  0  0  0  0  0  0  0  0  0  0
   20.7797   18.4147   23.9021 H   0  0  0  0  0  0  0  0  0  0  0  0
   19.3002   17.6707   24.5047 H   0  0  0  0  0  0  0  0  0  0  0  0
   20.2273   19.0526   25.8902 C   0  0  0  0  0  0  0  0  0  0  0  0
   20.7994   19.9837   25.8538 H   0  0  0  0  0  0  0  0  0  0  0  0
   19.3156   19.2314   26.4665 H   0  0  0  0  0  0  0  0  0  0  0  0
   21.0554   18.0237   26.6326 N   0  3  0  0  0  0  0  0  0  0  0  0
   21.9422   17.8303   26.1559 H   0  0  0  0  0  0  0  0  0  0  0  0
   20.5610   17.1303   26.7254 H   0  0  0  0  0  0  0  0  0  0  0  0
   21.2885   18.3356   27.5817 H   0  0  0  0  0  0  0  0  0  0  0  0
  1  2  1  0  0  0  0
  1  3  1  0  0  0  0
  1  4  1  0  0  0  0
  1  5  1  0  0  0  0
  5  6  1  0  0  0  0
  5  7  1  0  0  0  0
  5  8  1  0  0  0  0
  8  9  1  0  0  0  0
  8 10  1  0  0  0  0
  8 11  1  0  0  0  0
 11 12  1  0  0  0  0
 11 13  1  0  0  0  0
 11 14  1  0  0  0  0
 14 15  1  0  0  0  0
 14 16  1  0  0  0  0
 14 17  1  0  0  0  0
 17 18  1  0  0  0  0
 17 19  1  0  0  0  0
 17 20  1  0  0  0  0
 20 21  1  0  0  0  0
 20 22  1  0  0  0  0
 20 23  1  0  0  0  0
 23 24  1  0  0  0  0
 23 25  1  0  0  0  0
 23 26  1  0  0  0  0
M  END
> <VM2 Rank>
156

> <Conf_Id>
1100

> <Probability>
0.01

> <Sum Probability>
99.87

> <Delta G>
4.177

> <G>
52.438

> <E>
19.277

> <-TS>
33.161

> <U+W>
-2.185

> <U>
51.714

> <W>
-53.899

> <W(PB)>
-56.159

> <W(SA)>
2.260

> <Valence>
5.770

> <Coulomb>
45.469

> <VdW>
0.475

> <VdW6>
-8.435

> <VdW12>
8.910

> <Bond>
0.260

> <Angle>
1.769

> <Pdih>
3.741

> <Idih>
0.000

> <Tether>
0.000

$$$$
VeraChem MOL file


 26 25  0  0  0  0  0  0  0  0999 V2000     
   19.8945   20.0128   20.2693 C   0  0  0  0  0  0  0  0  0  0  0  0
   18.8200   20.1690   20.4304 H   0  0  0  0  0  0  0  0  0  0  0  0
   20.4487   20.5951   21.0158 H   0  0  0  0  0  0  0  0  0  0  0  0
   20.1486   20.4192   19.2819 H   0  0  0  0  0  0  0  0  0  0  0  0
   20.2570   18.5136   20.3453 C   0  0  0  0  0  0  0  0  0  0  0  0
   21.3442   18.3959   20.2365 H   0  0  0  0  0  0  0  0  0  0  0  0
   19.8078   17.9985   19.4847 H   0  0  0  0  0  0  0  0  0  0  0  0
   19.7856   17.8075   21.6422 C   0  0  0  0  0  0  0  0  0  0  0  0
   18.6892   17.8319   21.7085 H   0  0  0  0  0  0  0  0  0  0  0  0
   20.0530   16.7452   21.5555 H   0  0  0  0  0  0  0  0  0  0  0  0
   20.4172   18.3600   22.9465 C   0  0  0  0  0  0  0  0  0  0  0  0
   21.4091   18.7819   22.7343 H   0  0  0  0  0  0  0  0  0  0  0  0
   20.5853   17.5160   23.6286 H   0  0  0  0  0  0  0  0  0  0  0  0
   19.5268   19.4072   23.6639 C   0  0  0  0  0  0  0  0  0  0  0  0
   19.2662   20.2160   22.9711 H   0  0  0  0  0  0  0  0  0  0  0  0
   18.5745   18.9436   23.9537 H   0  0  0  0  0  0  0  0  0  0  0  0
   20.2063   20.0319   24.9082 C   0  0  0  0  0  0  0  0  0  0  0  0
   19.5398   20.7875   25.3448 H   0  0  0  0  0  0  0  0  0  0  0  0
   21.1119   20.5677   24.5942 H   0  0  0  0  0  0  0  0  0  0  0  0
   20.5896   19.0083   25.9962 C   0  0  0  0  0  0  0  0  0  0  0  0
   21.2885   18.2754   25.5850 H   0  0  0  0  0  0  0  0  0  0  0  0
   21.0869   19.5251   26.8215 H   0  0  0  0  0  0  0  0  0  0  0  0
   19.4040   18.2577   26.5694 N   0  3  0  0  0  0  0  0  0  0  0  0
   19.6894   17.5904   27.2943 H   0  0  0  0  0  0  0  0  0  0  0  0
   18.9096   17.7251   25.8470 H   0  0  0  0  0  0  0  0  0  0  0  0
   18.7229   18.8928   26.9979 H   0  0  0  0  0  0  0  0  0  0  0  0
  1  2  1  0  0  0  0
  1  3  1  0  0  0  0
  1  4  1  0  0  0  0
  1  5  1  0  0  0  0
  5  6  1  0  0  0  0
  5  7  1  0  0  0  0
  5  8  1  0  0  0  0
  8  9  1  0  0  0  0
  8 10  1  0  0  0  0
  8 11  1  0  0  0  0
 11 12  1  0  0  0  0
 11 13  1  0  0  0  0
 11 14  1  0  0  0  0
 14 15  1  0  0  0  0
 14 16  1  0  0  0  0
 14 17  1  0  0  0  0
 17 18  1  0  0  0  0
 17 19  1  0  0  0  0
 17 20  1  0  0  0  0
 20 21  1  0  0  0  0
 20 22  1  0  0  0  0
 20 23  1  0  0  0  0
 23 24  1  0  0  0  0
 23 25  1  0  0  0  0
 23 26  1  0  0  0  0
M  END
> <VM2 Rank>
157

> <Conf_Id>
541

> <Probability>
0.01

> <Sum Probability>
99.88

> <Delta G>
4.192

> <G>
52.453

> <E>
19.435

> <-TS>
33.018

> <U+W>
-2.027

> <U>
51.894

> <W>
-53.921

> <W(PB)>
-56.155

> <W(SA)>
2.234

> <Valence>
5.549

> <Coulomb>
45.566

> <VdW>
0.779

> <VdW6>
-8.637

> <VdW12>
9.416

> <Bond>
0.264

> <Angle>
1.348

> <Pdih>
3.937

> <Idih>
0.000

> <Tether>
0.000

$$$$
VeraChem MOL file


 26 25  0  0  0  0  0  0  0  0999 V2000     
   19.1970   19.5529   20.2461 C   0  0  0  0  0  0  0  0  0  0  0  0
   19.4684   20.5964   20.4519 H   0  0  0  0  0  0  0  0  0  0  0  0
   18.7697   19.5100   19.2360 H   0  0  0  0  0  0  0  0  0  0  0  0
   18.4099   19.2508   20.9479 H   0  0  0  0  0  0  0  0  0  0  0  0
   20.4278   18.6261   20.3511 C   0  0  0  0  0  0  0  0  0  0  0  0
   21.1173   18.8617   19.5284 H   0  0  0  0  0  0  0  0  0  0  0  0
   20.1137   17.5845   20.1956 H   0  0  0  0  0  0  0  0  0  0  0  0
   21.2014   18.7408   21.6894 C   0  0  0  0  0  0  0  0  0  0  0  0
   22.0758   18.0788   21.6230 H   0  0  0  0  0  0  0  0  0  0  0  0
   21.6068   19.7554   21.8058 H   0  0  0  0  0  0  0  0  0  0  0  0
   20.3851   18.3390   22.9455 C   0  0  0  0  0  0  0  0  0  0  0  0
   21.0625   17.8307   23.6446 H   0  0  0  0  0  0  0  0  0  0  0  0
   19.6177   17.6010   22.6746 H   0  0  0  0  0  0  0  0  0  0  0  0
   19.7402   19.5479   23.6710 C   0  0  0  0  0  0  0  0  0  0  0  0
   20.5268   20.2305   24.0191 H   0  0  0  0  0  0  0  0  0  0  0  0
   19.1322   20.1278   22.9666 H   0  0  0  0  0  0  0  0  0  0  0  0
   18.8413   19.1323   24.8625 C   0  0  0  0  0  0  0  0  0  0  0  0
   18.0077   18.5220   24.4903 H   0  0  0  0  0  0  0  0  0  0  0  0
   18.3892   20.0292   25.3063 H   0  0  0  0  0  0  0  0  0  0  0  0
   19.5796   18.3426   25.9623 C   0  0  0  0  0  0  0  0  0  0  0  0
   18.8711   18.0647   26.7472 H   0  0  0  0  0  0  0  0  0  0  0  0
   19.9969   17.4242   25.5415 H   0  0  0  0  0  0  0  0  0  0  0  0
   20.7085   19.1172   26.6130 N   0  3  0  0  0  0  0  0  0  0  0  0
   20.3732   19.9801   27.0533 H   0  0  0  0  0  0  0  0  0  0  0  0
   21.4256   19.3833   25.9311 H   0  0  0  0  0  0  0  0  0  0  0  0
   21.1753   18.5693   27.3438 H   0  0  0  0  0  0  0  0  0  0  0  0
  1  2  1  0  0  0  0
  1  3  1  0  0  0  0
  1  4  1  0  0  0  0
  1  5  1  0  0  0  0
  5  6  1  0  0  0  0
  5  7  1  0  0  0  0
  5  8  1  0  0  0  0
  8  9  1  0  0  0  0
  8 10  1  0  0  0  0
  8 11  1  0  0  0  0
 11 12  1  0  0  0  0
 11 13  1  0  0  0  0
 11 14  1  0  0  0  0
 14 15  1  0  0  0  0
 14 16  1  0  0  0  0
 14 17  1  0  0  0  0
 17 18  1  0  0  0  0
 17 19  1  0  0  0  0
 17 20  1  0  0  0  0
 20 21  1  0  0  0  0
 20 22  1  0  0  0  0
 20 23  1  0  0  0  0
 23 24  1  0  0  0  0
 23 25  1  0  0  0  0
 23 26  1  0  0  0  0
M  END
> <VM2 Rank>
158

> <Conf_Id>
1344

> <Probability>
0.01

> <Sum Probability>
99.88

> <Delta G>
4.218

> <G>
52.480

> <E>
19.461

> <-TS>
33.019

> <U+W>
-2.001

> <U>
51.894

> <W>
-53.895

> <W(PB)>
-56.142

> <W(SA)>
2.247

> <Valence>
5.549

> <Coulomb>
45.566

> <VdW>
0.779

> <VdW6>
-8.638

> <VdW12>
9.416

> <Bond>
0.264

> <Angle>
1.348

> <Pdih>
3.938

> <Idih>
0.000

> <Tether>
0.000

$$$$
VeraChem MOL file


 26 25  0  0  0  0  0  0  0  0999 V2000     
   18.9559   18.6672   20.0126 C   0  0  0  0  0  0  0  0  0  0  0  0
   18.0649   18.0514   19.8338 H   0  0  0  0  0  0  0  0  0  0  0  0
   18.6677   19.7197   19.8934 H   0  0  0  0  0  0  0  0  0  0  0  0
   19.6939   18.4248   19.2368 H   0  0  0  0  0  0  0  0  0  0  0  0
   19.5256   18.4049   21.4228 C   0  0  0  0  0  0  0  0  0  0  0  0
   19.7744   17.3389   21.5196 H   0  0  0  0  0  0  0  0  0  0  0  0
   18.7463   18.6146   22.1639 H   0  0  0  0  0  0  0  0  0  0  0  0
   20.7863   19.2604   21.6951 C   0  0  0  0  0  0  0  0  0  0  0  0
   21.5243   19.0341   20.9131 H   0  0  0  0  0  0  0  0  0  0  0  0
   20.5529   20.3287   21.5899 H   0  0  0  0  0  0  0  0  0  0  0  0
   21.4450   18.9910   23.0737 C   0  0  0  0  0  0  0  0  0  0  0  0
   22.5296   19.1235   22.9568 H   0  0  0  0  0  0  0  0  0  0  0  0
   21.3118   17.9405   23.3645 H   0  0  0  0  0  0  0  0  0  0  0  0
   20.9891   19.9420   24.2132 C   0  0  0  0  0  0  0  0  0  0  0  0
   21.6161   19.7562   25.0954 H   0  0  0  0  0  0  0  0  0  0  0  0
   21.1994   20.9793   23.9183 H   0  0  0  0  0  0  0  0  0  0  0  0
   19.4991   19.8335   24.6247 C   0  0  0  0  0  0  0  0  0  0  0  0
   18.8631   20.1784   23.8003 H   0  0  0  0  0  0  0  0  0  0  0  0
   19.3056   20.5239   25.4563 H   0  0  0  0  0  0  0  0  0  0  0  0
   19.0687   18.4131   25.0435 C   0  0  0  0  0  0  0  0  0  0  0  0
   18.0013   18.4114   25.2801 H   0  0  0  0  0  0  0  0  0  0  0  0
   19.2356   17.7176   24.2171 H   0  0  0  0  0  0  0  0  0  0  0  0
   19.8113   17.8870   26.2556 N   0  3  0  0  0  0  0  0  0  0  0  0
   19.5018   16.9436   26.5130 H   0  0  0  0  0  0  0  0  0  0  0  0
   19.6692   18.4838   27.0769 H   0  0  0  0  0  0  0  0  0  0  0  0
   20.8208   17.8383   26.0873 H   0  0  0  0  0  0  0  0  0  0  0  0
  1  2  1  0  0  0  0
  1  3  1  0  0  0  0
  1  4  1  0  0  0  0
  1  5  1  0  0  0  0
  5  6  1  0  0  0  0
  5  7  1  0  0  0  0
  5  8  1  0  0  0  0
  8  9  1  0  0  0  0
  8 10  1  0  0  0  0
  8 11  1  0  0  0  0
 11 12  1  0  0  0  0
 11 13  1  0  0  0  0
 11 14  1  0  0  0  0
 14 15  1  0  0  0  0
 14 16  1  0  0  0  0
 14 17  1  0  0  0  0
 17 18  1  0  0  0  0
 17 19  1  0  0  0  0
 17 20  1  0  0  0  0
 20 21  1  0  0  0  0
 20 22  1  0  0  0  0
 20 23  1  0  0  0  0
 23 24  1  0  0  0  0
 23 25  1  0  0  0  0
 23 26  1  0  0  0  0
M  END
> <VM2 Rank>
159

> <Conf_Id>
1105

> <Probability>
0.01

> <Sum Probability>
99.89

> <Delta G>
4.278

> <G>
52.539

> <E>
19.309

> <-TS>
33.230

> <U+W>
-2.152

> <U>
52.068

> <W>
-54.221

> <W(PB)>
-56.446

> <W(SA)>
2.225

> <Valence>
5.586

> <Coulomb>
46.106

> <VdW>
0.377

> <VdW6>
-9.203

> <VdW12>
9.580

> <Bond>
0.268

> <Angle>
1.680

> <Pdih>
3.637

> <Idih>
0.000

> <Tether>
0.000

$$$$
VeraChem MOL file


 26 25  0  0  0  0  0  0  0  0999 V2000     
   19.6437   20.0585   20.2792 C   0  0  0  0  0  0  0  0  0  0  0  0
   18.6895   19.5240   20.3643 H   0  0  0  0  0  0  0  0  0  0  0  0
   19.5745   20.9824   20.8680 H   0  0  0  0  0  0  0  0  0  0  0  0
   19.7712   20.3403   19.2260 H   0  0  0  0  0  0  0  0  0  0  0  0
   20.8278   19.1852   20.7525 C   0  0  0  0  0  0  0  0  0  0  0  0
   21.7665   19.7151   20.5382 H   0  0  0  0  0  0  0  0  0  0  0  0
   20.8593   18.2557   20.1669 H   0  0  0  0  0  0  0  0  0  0  0  0
   20.7787   18.8526   22.2632 C   0  0  0  0  0  0  0  0  0  0  0  0
   21.7061   18.3284   22.5314 H   0  0  0  0  0  0  0  0  0  0  0  0
   20.7765   19.7899   22.8300 H   0  0  0  0  0  0  0  0  0  0  0  0
   19.5660   17.9694   22.6554 C   0  0  0  0  0  0  0  0  0  0  0  0
   19.5581   17.0916   21.9946 H   0  0  0  0  0  0  0  0  0  0  0  0
   18.6232   18.4996   22.4675 H   0  0  0  0  0  0  0  0  0  0  0  0
   19.5967   17.4654   24.1223 C   0  0  0  0  0  0  0  0  0  0  0  0
   19.0440   16.5164   24.1613 H   0  0  0  0  0  0  0  0  0  0  0  0
   20.6234   17.2155   24.4209 H   0  0  0  0  0  0  0  0  0  0  0  0
   18.9412   18.4198   25.1561 C   0  0  0  0  0  0  0  0  0  0  0  0
   18.9063   17.9164   26.1314 H   0  0  0  0  0  0  0  0  0  0  0  0
   17.8957   18.5974   24.8714 H   0  0  0  0  0  0  0  0  0  0  0  0
   19.6418   19.7806   25.3314 C   0  0  0  0  0  0  0  0  0  0  0  0
   19.6149   20.3353   24.3910 H   0  0  0  0  0  0  0  0  0  0  0  0
   19.1061   20.3679   26.0821 H   0  0  0  0  0  0  0  0  0  0  0  0
   21.0851   19.6677   25.7810 N   0  3  0  0  0  0  0  0  0  0  0  0
   21.1644   19.1868   26.6828 H   0  0  0  0  0  0  0  0  0  0  0  0
   21.5231   20.5884   25.8926 H   0  0  0  0  0  0  0  0  0  0  0  0
   21.6491   19.1421   25.1063 H   0  0  0  0  0  0  0  0  0  0  0  0
  1  2  1  0  0  0  0
  1  3  1  0  0  0  0
  1  4  1  0  0  0  0
  1  5  1  0  0  0  0
  5  6  1  0  0  0  0
  5  7  1  0  0  0  0
  5  8  1  0  0  0  0
  8  9  1  0  0  0  0
  8 10  1  0  0  0  0
  8 11  1  0  0  0  0
 11 12  1  0  0  0  0
 11 13  1  0  0  0  0
 11 14  1  0  0  0  0
 14 15  1  0  0  0  0
 14 16  1  0  0  0  0
 14 17  1  0  0  0  0
 17 18  1  0  0  0  0
 17 19  1  0  0  0  0
 17 20  1  0  0  0  0
 20 21  1  0  0  0  0
 20 22  1  0  0  0  0
 20 23  1  0  0  0  0
 23 24  1  0  0  0  0
 23 25  1  0  0  0  0
 23 26  1  0  0  0  0
M  END
> <VM2 Rank>
160

> <Conf_Id>
569

> <Probability>
0.01

> <Sum Probability>
99.89

> <Delta G>
4.287

> <G>
52.548

> <E>
19.599

> <-TS>
32.949

> <U+W>
-1.863

> <U>
52.361

> <W>
-54.224

> <W(PB)>
-56.455

> <W(SA)>
2.231

> <Valence>
5.334

> <Coulomb>
46.481

> <VdW>
0.546

> <VdW6>
-8.933

> <VdW12>
9.479

> <Bond>
0.278

> <Angle>
1.664

> <Pdih>
3.392

> <Idih>
0.000

> <Tether>
0.000

$$$$
VeraChem MOL file


 26 25  0  0  0  0  0  0  0  0999 V2000     
   18.7978   18.6330   20.4174 C   0  0  0  0  0  0  0  0  0  0  0  0
   18.2096   19.0035   21.2638 H   0  0  0  0  0  0  0  0  0  0  0  0
   18.8645   19.4381   19.6743 H   0  0  0  0  0  0  0  0  0  0  0  0
   18.2389   17.8054   19.9617 H   0  0  0  0  0  0  0  0  0  0  0  0
   20.2066   18.1615   20.8474 C   0  0  0  0  0  0  0  0  0  0  0  0
   20.7214   17.7789   19.9550 H   0  0  0  0  0  0  0  0  0  0  0  0
   20.1305   17.3113   21.5394 H   0  0  0  0  0  0  0  0  0  0  0  0
   21.0713   19.2880   21.4699 C   0  0  0  0  0  0  0  0  0  0  0  0
   22.1157   19.1199   21.1724 H   0  0  0  0  0  0  0  0  0  0  0  0
   20.7952   20.2610   21.0407 H   0  0  0  0  0  0  0  0  0  0  0  0
   21.0344   19.3571   23.0183 C   0  0  0  0  0  0  0  0  0  0  0  0
   21.7415   20.1325   23.3441 H   0  0  0  0  0  0  0  0  0  0  0  0
   21.4086   18.4096   23.4285 H   0  0  0  0  0  0  0  0  0  0  0  0
   19.6382   19.6711   23.6088 C   0  0  0  0  0  0  0  0  0  0  0  0
   19.2163   20.5456   23.0946 H   0  0  0  0  0  0  0  0  0  0  0  0
   18.9547   18.8351   23.4157 H   0  0  0  0  0  0  0  0  0  0  0  0
   19.6753   19.9620   25.1300 C   0  0  0  0  0  0  0  0  0  0  0  0
   18.6629   20.2057   25.4784 H   0  0  0  0  0  0  0  0  0  0  0  0
   20.2851   20.8567   25.3127 H   0  0  0  0  0  0  0  0  0  0  0  0
   20.2356   18.8006   25.9759 C   0  0  0  0  0  0  0  0  0  0  0  0
   21.2586   18.5757   25.6634 H   0  0  0  0  0  0  0  0  0  0  0  0
   20.2594   19.0965   27.0282 H   0  0  0  0  0  0  0  0  0  0  0  0
   19.4217   17.5258   25.8734 N   0  3  0  0  0  0  0  0  0  0  0  0
   19.8152   16.7751   26.4511 H   0  0  0  0  0  0  0  0  0  0  0  0
   19.3851   17.1781   24.9102 H   0  0  0  0  0  0  0  0  0  0  0  0
   18.4546   17.6665   26.1828 H   0  0  0  0  0  0  0  0  0  0  0  0
  1  2  1  0  0  0  0
  1  3  1  0  0  0  0
  1  4  1  0  0  0  0
  1  5  1  0  0  0  0
  5  6  1  0  0  0  0
  5  7  1  0  0  0  0
  5  8  1  0  0  0  0
  8  9  1  0  0  0  0
  8 10  1  0  0  0  0
  8 11  1  0  0  0  0
 11 12  1  0  0  0  0
 11 13  1  0  0  0  0
 11 14  1  0  0  0  0
 14 15  1  0  0  0  0
 14 16  1  0  0  0  0
 14 17  1  0  0  0  0
 17 18  1  0  0  0  0
 17 19  1  0  0  0  0
 17 20  1  0  0  0  0
 20 21  1  0  0  0  0
 20 22  1  0  0  0  0
 20 23  1  0  0  0  0
 23 24  1  0  0  0  0
 23 25  1  0  0  0  0
 23 26  1  0  0  0  0
M  END
> <VM2 Rank>
161

> <Conf_Id>
729

> <Probability>
0.00

> <Sum Probability>
99.90

> <Delta G>
4.360

> <G>
52.621

> <E>
19.645

> <-TS>
32.977

> <U+W>
-1.817

> <U>
52.217

> <W>
-54.034

> <W(PB)>
-56.256

> <W(SA)>
2.222

> <Valence>
5.510

> <Coulomb>
45.996

> <VdW>
0.711

> <VdW6>
-8.694

> <VdW12>
9.406

> <Bond>
0.259

> <Angle>
1.386

> <Pdih>
3.865

> <Idih>
0.000

> <Tether>
0.000

$$$$
VeraChem MOL file


 26 25  0  0  0  0  0  0  0  0999 V2000     
   19.8351   20.2163   20.2944 C   0  0  0  0  0  0  0  0  0  0  0  0
   20.0423   20.8040   21.1954 H   0  0  0  0  0  0  0  0  0  0  0  0
   20.4215   20.6483   19.4732 H   0  0  0  0  0  0  0  0  0  0  0  0
   18.7731   20.3418   20.0467 H   0  0  0  0  0  0  0  0  0  0  0  0
   20.1848   18.7213   20.4806 C   0  0  0  0  0  0  0  0  0  0  0  0
   21.2633   18.5992   20.6521 H   0  0  0  0  0  0  0  0  0  0  0  0
   19.9690   18.2032   19.5357 H   0  0  0  0  0  0  0  0  0  0  0  0
   19.3774   18.0381   21.6144 C   0  0  0  0  0  0  0  0  0  0  0  0
   18.4017   18.5285   21.7349 H   0  0  0  0  0  0  0  0  0  0  0  0
   19.1535   17.0088   21.3015 H   0  0  0  0  0  0  0  0  0  0  0  0
   20.1073   17.9609   22.9804 C   0  0  0  0  0  0  0  0  0  0  0  0
   21.0293   17.3742   22.8678 H   0  0  0  0  0  0  0  0  0  0  0  0
   19.4678   17.3951   23.6703 H   0  0  0  0  0  0  0  0  0  0  0  0
   20.4482   19.3387   23.5997 C   0  0  0  0  0  0  0  0  0  0  0  0
   21.1604   19.8603   22.9478 H   0  0  0  0  0  0  0  0  0  0  0  0
   19.5464   19.9638   23.6394 H   0  0  0  0  0  0  0  0  0  0  0  0
   21.0832   19.2353   25.0096 C   0  0  0  0  0  0  0  0  0  0  0  0
   21.3606   20.2400   25.3553 H   0  0  0  0  0  0  0  0  0  0  0  0
   22.0196   18.6655   24.9439 H   0  0  0  0  0  0  0  0  0  0  0  0
   20.1744   18.5748   26.0663 C   0  0  0  0  0  0  0  0  0  0  0  0
   19.9356   17.5522   25.7635 H   0  0  0  0  0  0  0  0  0  0  0  0
   20.7036   18.5296   27.0221 H   0  0  0  0  0  0  0  0  0  0  0  0
   18.8708   19.3136   26.2955 N   0  3  0  0  0  0  0  0  0  0  0  0
   19.0294   20.2761   26.6104 H   0  0  0  0  0  0  0  0  0  0  0  0
   18.2934   18.8556   27.0089 H   0  0  0  0  0  0  0  0  0  0  0  0
   18.3099   19.3626   25.4393 H   0  0  0  0  0  0  0  0  0  0  0  0
  1  2  1  0  0  0  0
  1  3  1  0  0  0  0
  1  4  1  0  0  0  0
  1  5  1  0  0  0  0
  5  6  1  0  0  0  0
  5  7  1  0  0  0  0
  5  8  1  0  0  0  0
  8  9  1  0  0  0  0
  8 10  1  0  0  0  0
  8 11  1  0  0  0  0
 11 12  1  0  0  0  0
 11 13  1  0  0  0  0
 11 14  1  0  0  0  0
 14 15  1  0  0  0  0
 14 16  1  0  0  0  0
 14 17  1  0  0  0  0
 17 18  1  0  0  0  0
 17 19  1  0  0  0  0
 17 20  1  0  0  0  0
 20 21  1  0  0  0  0
 20 22  1  0  0  0  0
 20 23  1  0  0  0  0
 23 24  1  0  0  0  0
 23 25  1  0  0  0  0
 23 26  1  0  0  0  0
M  END
> <VM2 Rank>
162

> <Conf_Id>
835

> <Probability>
0.00

> <Sum Probability>
99.90

> <Delta G>
4.365

> <G>
52.626

> <E>
19.662

> <-TS>
32.965

> <U+W>
-1.800

> <U>
52.090

> <W>
-53.890

> <W(PB)>
-56.114

> <W(SA)>
2.224

> <Valence>
5.620

> <Coulomb>
45.628

> <VdW>
0.841

> <VdW6>
-8.591

> <VdW12>
9.432

> <Bond>
0.266

> <Angle>
1.473

> <Pdih>
3.881

> <Idih>
0.000

> <Tether>
0.000

$$$$
VeraChem MOL file


 26 25  0  0  0  0  0  0  0  0999 V2000     
   19.2525   19.8007   20.2665 C   0  0  0  0  0  0  0  0  0  0  0  0
   18.4035   20.2099   20.8292 H   0  0  0  0  0  0  0  0  0  0  0  0
   20.1139   20.4643   20.4123 H   0  0  0  0  0  0  0  0  0  0  0  0
   18.9926   19.8272   19.2003 H   0  0  0  0  0  0  0  0  0  0  0  0
   19.5684   18.3544   20.7104 C   0  0  0  0  0  0  0  0  0  0  0  0
   20.4372   17.9776   20.1527 H   0  0  0  0  0  0  0  0  0  0  0  0
   18.7234   17.7074   20.4363 H   0  0  0  0  0  0  0  0  0  0  0  0
   19.8229   18.2218   22.2312 C   0  0  0  0  0  0  0  0  0  0  0  0
   18.9363   18.5755   22.7686 H   0  0  0  0  0  0  0  0  0  0  0  0
   19.9282   17.1551   22.4717 H   0  0  0  0  0  0  0  0  0  0  0  0
   21.0918   18.9759   22.7064 C   0  0  0  0  0  0  0  0  0  0  0  0
   20.9834   20.0566   22.5465 H   0  0  0  0  0  0  0  0  0  0  0  0
   21.9321   18.6577   22.0740 H   0  0  0  0  0  0  0  0  0  0  0  0
   21.4745   18.7039   24.1851 C   0  0  0  0  0  0  0  0  0  0  0  0
   21.2872   17.6532   24.4430 H   0  0  0  0  0  0  0  0  0  0  0  0
   22.5613   18.8364   24.2789 H   0  0  0  0  0  0  0  0  0  0  0  0
   20.8070   19.6504   25.2185 C   0  0  0  0  0  0  0  0  0  0  0  0
   21.0676   20.6896   24.9776 H   0  0  0  0  0  0  0  0  0  0  0  0
   21.2376   19.4540   26.2094 H   0  0  0  0  0  0  0  0  0  0  0  0
   19.2739   19.5379   25.3189 C   0  0  0  0  0  0  0  0  0  0  0  0
   18.9096   20.2385   26.0753 H   0  0  0  0  0  0  0  0  0  0  0  0
   18.8187   19.8101   24.3642 H   0  0  0  0  0  0  0  0  0  0  0  0
   18.7899   18.1539   25.7041 N   0  3  0  0  0  0  0  0  0  0  0  0
   19.1583   17.8639   26.6158 H   0  0  0  0  0  0  0  0  0  0  0  0
   19.0828   17.4494   25.0205 H   0  0  0  0  0  0  0  0  0  0  0  0
   17.7670   18.1111   25.7668 H   0  0  0  0  0  0  0  0  0  0  0  0
  1  2  1  0  0  0  0
  1  3  1  0  0  0  0
  1  4  1  0  0  0  0
  1  5  1  0  0  0  0
  5  6  1  0  0  0  0
  5  7  1  0  0  0  0
  5  8  1  0  0  0  0
  8  9  1  0  0  0  0
  8 10  1  0  0  0  0
  8 11  1  0  0  0  0
 11 12  1  0  0  0  0
 11 13  1  0  0  0  0
 11 14  1  0  0  0  0
 14 15  1  0  0  0  0
 14 16  1  0  0  0  0
 14 17  1  0  0  0  0
 17 18  1  0  0  0  0
 17 19  1  0  0  0  0
 17 20  1  0  0  0  0
 20 21  1  0  0  0  0
 20 22  1  0  0  0  0
 20 23  1  0  0  0  0
 23 24  1  0  0  0  0
 23 25  1  0  0  0  0
 23 26  1  0  0  0  0
M  END
> <VM2 Rank>
163

> <Conf_Id>
279

> <Probability>
0.00

> <Sum Probability>
99.91

> <Delta G>
4.369

> <G>
52.630

> <E>
19.681

> <-TS>
32.949

> <U+W>
-1.781

> <U>
52.361

> <W>
-54.142

> <W(PB)>
-56.381

> <W(SA)>
2.239

> <Valence>
5.334

> <Coulomb>
46.481

> <VdW>
0.546

> <VdW6>
-8.933

> <VdW12>
9.479

> <Bond>
0.278

> <Angle>
1.663

> <Pdih>
3.393

> <Idih>
0.000

> <Tether>
0.000

$$$$
VeraChem MOL file


 26 25  0  0  0  0  0  0  0  0999 V2000     
   19.0314   19.6859   20.2678 C   0  0  0  0  0  0  0  0  0  0  0  0
   18.3683   19.6990   21.1398 H   0  0  0  0  0  0  0  0  0  0  0  0
   19.3437   20.7187   20.0660 H   0  0  0  0  0  0  0  0  0  0  0  0
   18.4428   19.3423   19.4073 H   0  0  0  0  0  0  0  0  0  0  0  0
   20.2594   18.7708   20.4832 C   0  0  0  0  0  0  0  0  0  0  0  0
   20.8639   18.7943   19.5656 H   0  0  0  0  0  0  0  0  0  0  0  0
   19.9410   17.7264   20.6080 H   0  0  0  0  0  0  0  0  0  0  0  0
   21.1510   19.2090   21.6736 C   0  0  0  0  0  0  0  0  0  0  0  0
   22.1990   19.0195   21.4031 H   0  0  0  0  0  0  0  0  0  0  0  0
   21.0770   20.2948   21.8243 H   0  0  0  0  0  0  0  0  0  0  0  0
   20.8726   18.4660   23.0059 C   0  0  0  0  0  0  0  0  0  0  0  0
   21.6108   18.8100   23.7419 H   0  0  0  0  0  0  0  0  0  0  0  0
   21.0558   17.3914   22.8686 H   0  0  0  0  0  0  0  0  0  0  0  0
   19.4441   18.6754   23.5661 C   0  0  0  0  0  0  0  0  0  0  0  0
   19.2210   19.7487   23.6284 H   0  0  0  0  0  0  0  0  0  0  0  0
   18.7161   18.2460   22.8661 H   0  0  0  0  0  0  0  0  0  0  0  0
   19.2249   18.0080   24.9475 C   0  0  0  0  0  0  0  0  0  0  0  0
   19.3850   16.9255   24.8560 H   0  0  0  0  0  0  0  0  0  0  0  0
   18.1769   18.1374   25.2488 H   0  0  0  0  0  0  0  0  0  0  0  0
   20.1385   18.5513   26.0651 C   0  0  0  0  0  0  0  0  0  0  0  0
   19.9284   18.0178   26.9962 H   0  0  0  0  0  0  0  0  0  0  0  0
   21.1858   18.3781   25.8053 H   0  0  0  0  0  0  0  0  0  0  0  0
   19.9591   20.0326   26.3317 N   0  3  0  0  0  0  0  0  0  0  0  0
   18.9978   20.2554   26.6092 H   0  0  0  0  0  0  0  0  0  0  0  0
   20.1735   20.5936   25.5015 H   0  0  0  0  0  0  0  0  0  0  0  0
   20.5728   20.3614   27.0850 H   0  0  0  0  0  0  0  0  0  0  0  0
  1  2  1  0  0  0  0
  1  3  1  0  0  0  0
  1  4  1  0  0  0  0
  1  5  1  0  0  0  0
  5  6  1  0  0  0  0
  5  7  1  0  0  0  0
  5  8  1  0  0  0  0
  8  9  1  0  0  0  0
  8 10  1  0  0  0  0
  8 11  1  0  0  0  0
 11 12  1  0  0  0  0
 11 13  1  0  0  0  0
 11 14  1  0  0  0  0
 14 15  1  0  0  0  0
 14 16  1  0  0  0  0
 14 17  1  0  0  0  0
 17 18  1  0  0  0  0
 17 19  1  0  0  0  0
 17 20  1  0  0  0  0
 20 21  1  0  0  0  0
 20 22  1  0  0  0  0
 20 23  1  0  0  0  0
 23 24  1  0  0  0  0
 23 25  1  0  0  0  0
 23 26  1  0  0  0  0
M  END
> <VM2 Rank>
164

> <Conf_Id>
539

> <Probability>
0.00

> <Sum Probability>
99.91

> <Delta G>
4.373

> <G>
52.634

> <E>
19.670

> <-TS>
32.965

> <U+W>
-1.792

> <U>
52.090

> <W>
-53.882

> <W(PB)>
-56.146

> <W(SA)>
2.264

> <Valence>
5.620

> <Coulomb>
45.628

> <VdW>
0.841

> <VdW6>
-8.591

> <VdW12>
9.432

> <Bond>
0.266

> <Angle>
1.473

> <Pdih>
3.881

> <Idih>
0.000

> <Tether>
0.000

$$$$
VeraChem MOL file


 26 25  0  0  0  0  0  0  0  0999 V2000     
   20.4608   17.9746   19.9970 C   0  0  0  0  0  0  0  0  0  0  0  0
   21.3982   17.7791   20.5313 H   0  0  0  0  0  0  0  0  0  0  0  0
   20.1401   17.0310   19.5370 H   0  0  0  0  0  0  0  0  0  0  0  0
   20.6702   18.6865   19.1880 H   0  0  0  0  0  0  0  0  0  0  0  0
   19.3633   18.5153   20.9423 C   0  0  0  0  0  0  0  0  0  0  0  0
   19.1687   17.7818   21.7340 H   0  0  0  0  0  0  0  0  0  0  0  0
   18.4275   18.6052   20.3733 H   0  0  0  0  0  0  0  0  0  0  0  0
   19.7076   19.9009   21.5473 C   0  0  0  0  0  0  0  0  0  0  0  0
   19.9844   20.5750   20.7250 H   0  0  0  0  0  0  0  0  0  0  0  0
   18.8062   20.3411   21.9953 H   0  0  0  0  0  0  0  0  0  0  0  0
   20.8549   19.8908   22.5942 C   0  0  0  0  0  0  0  0  0  0  0  0
   21.4308   20.8190   22.4758 H   0  0  0  0  0  0  0  0  0  0  0  0
   21.5639   19.0786   22.3911 H   0  0  0  0  0  0  0  0  0  0  0  0
   20.3850   19.8200   24.0701 C   0  0  0  0  0  0  0  0  0  0  0  0
   21.2725   19.9011   24.7113 H   0  0  0  0  0  0  0  0  0  0  0  0
   19.7625   20.6965   24.2977 H   0  0  0  0  0  0  0  0  0  0  0  0
   19.6069   18.5305   24.4284 C   0  0  0  0  0  0  0  0  0  0  0  0
   20.1889   17.6451   24.1404 H   0  0  0  0  0  0  0  0  0  0  0  0
   18.6708   18.4982   23.8574 H   0  0  0  0  0  0  0  0  0  0  0  0
   19.2489   18.4477   25.9250 C   0  0  0  0  0  0  0  0  0  0  0  0
   18.6924   19.3411   26.2206 H   0  0  0  0  0  0  0  0  0  0  0  0
   18.6109   17.5765   26.0965 H   0  0  0  0  0  0  0  0  0  0  0  0
   20.4536   18.3192   26.8367 N   0  3  0  0  0  0  0  0  0  0  0  0
   20.1791   18.2516   27.8228 H   0  0  0  0  0  0  0  0  0  0  0  0
   21.0801   19.1258   26.7547 H   0  0  0  0  0  0  0  0  0  0  0  0
   21.0062   17.4829   26.6219 H   0  0  0  0  0  0  0  0  0  0  0  0
  1  2  1  0  0  0  0
  1  3  1  0  0  0  0
  1  4  1  0  0  0  0
  1  5  1  0  0  0  0
  5  6  1  0  0  0  0
  5  7  1  0  0  0  0
  5  8  1  0  0  0  0
  8  9  1  0  0  0  0
  8 10  1  0  0  0  0
  8 11  1  0  0  0  0
 11 12  1  0  0  0  0
 11 13  1  0  0  0  0
 11 14  1  0  0  0  0
 14 15  1  0  0  0  0
 14 16  1  0  0  0  0
 14 17  1  0  0  0  0
 17 18  1  0  0  0  0
 17 19  1  0  0  0  0
 17 20  1  0  0  0  0
 20 21  1  0  0  0  0
 20 22  1  0  0  0  0
 20 23  1  0  0  0  0
 23 24  1  0  0  0  0
 23 25  1  0  0  0  0
 23 26  1  0  0  0  0
M  END
> <VM2 Rank>
165

> <Conf_Id>
849

> <Probability>
0.00

> <Sum Probability>
99.92

> <Delta G>
4.419

> <G>
52.680

> <E>
19.810

> <-TS>
32.870

> <U+W>
-1.652

> <U>
52.213

> <W>
-53.865

> <W(PB)>
-56.127

> <W(SA)>
2.262

> <Valence>
6.034

> <Coulomb>
45.240

> <VdW>
0.939

> <VdW6>
-8.400

> <VdW12>
9.339

> <Bond>
0.287

> <Angle>
1.514

> <Pdih>
4.234

> <Idih>
0.000

> <Tether>
0.000

$$$$
VeraChem MOL file


 26 25  0  0  0  0  0  0  0  0999 V2000     
   19.9304   20.3953   20.6866 C   0  0  0  0  0  0  0  0  0  0  0  0
   19.0280   20.6535   21.2556 H   0  0  0  0  0  0  0  0  0  0  0  0
   20.8099   20.6580   21.2872 H   0  0  0  0  0  0  0  0  0  0  0  0
   19.9503   21.0216   19.7853 H   0  0  0  0  0  0  0  0  0  0  0  0
   19.9390   18.8992   20.3043 C   0  0  0  0  0  0  0  0  0  0  0  0
   20.8812   18.6586   19.7924 H   0  0  0  0  0  0  0  0  0  0  0  0
   19.1401   18.7185   19.5716 H   0  0  0  0  0  0  0  0  0  0  0  0
   19.7356   17.9354   21.5011 C   0  0  0  0  0  0  0  0  0  0  0  0
   18.7492   18.1054   21.9496 H   0  0  0  0  0  0  0  0  0  0  0  0
   19.7039   16.9133   21.0991 H   0  0  0  0  0  0  0  0  0  0  0  0
   20.8554   17.9946   22.5761 C   0  0  0  0  0  0  0  0  0  0  0  0
   21.8008   18.2887   22.0999 H   0  0  0  0  0  0  0  0  0  0  0  0
   21.0273   16.9822   22.9668 H   0  0  0  0  0  0  0  0  0  0  0  0
   20.5650   18.9365   23.7738 C   0  0  0  0  0  0  0  0  0  0  0  0
   21.5002   19.0741   24.3323 H   0  0  0  0  0  0  0  0  0  0  0  0
   20.2716   19.9313   23.4177 H   0  0  0  0  0  0  0  0  0  0  0  0
   19.4790   18.3874   24.7336 C   0  0  0  0  0  0  0  0  0  0  0  0
   19.7799   17.4038   25.1181 H   0  0  0  0  0  0  0  0  0  0  0  0
   18.5390   18.2349   24.1899 H   0  0  0  0  0  0  0  0  0  0  0  0
   19.1980   19.3353   25.9157 C   0  0  0  0  0  0  0  0  0  0  0  0
   18.9109   20.3201   25.5375 H   0  0  0  0  0  0  0  0  0  0  0  0
   18.3662   18.9412   26.5059 H   0  0  0  0  0  0  0  0  0  0  0  0
   20.3785   19.5152   26.8499 N   0  3  0  0  0  0  0  0  0  0  0  0
   20.6817   18.6241   27.2561 H   0  0  0  0  0  0  0  0  0  0  0  0
   20.1533   20.1396   27.6320 H   0  0  0  0  0  0  0  0  0  0  0  0
   21.1870   19.9190   26.3671 H   0  0  0  0  0  0  0  0  0  0  0  0
  1  2  1  0  0  0  0
  1  3  1  0  0  0  0
  1  4  1  0  0  0  0
  1  5  1  0  0  0  0
  5  6  1  0  0  0  0
  5  7  1  0  0  0  0
  5  8  1  0  0  0  0
  8  9  1  0  0  0  0
  8 10  1  0  0  0  0
  8 11  1  0  0  0  0
 11 12  1  0  0  0  0
 11 13  1  0  0  0  0
 11 14  1  0  0  0  0
 14 15  1  0  0  0  0
 14 16  1  0  0  0  0
 14 17  1  0  0  0  0
 17 18  1  0  0  0  0
 17 19  1  0  0  0  0
 17 20  1  0  0  0  0
 20 21  1  0  0  0  0
 20 22  1  0  0  0  0
 20 23  1  0  0  0  0
 23 24  1  0  0  0  0
 23 25  1  0  0  0  0
 23 26  1  0  0  0  0
M  END
> <VM2 Rank>
166

> <Conf_Id>
858

> <Probability>
0.00

> <Sum Probability>
99.92

> <Delta G>
4.456

> <G>
52.717

> <E>
19.850

> <-TS>
32.867

> <U+W>
-1.612

> <U>
52.210

> <W>
-53.822

> <W(PB)>
-56.080

> <W(SA)>
2.259

> <Valence>
6.007

> <Coulomb>
45.273

> <VdW>
0.930

> <VdW6>
-8.391

> <VdW12>
9.322

> <Bond>
0.291

> <Angle>
1.472

> <Pdih>
4.245

> <Idih>
0.000

> <Tether>
0.000

$$$$
VeraChem MOL file


 26 25  0  0  0  0  0  0  0  0999 V2000     
   19.0064   18.3386   19.9037 C   0  0  0  0  0  0  0  0  0  0  0  0
   19.1866   17.6620   19.0582 H   0  0  0  0  0  0  0  0  0  0  0  0
   18.0793   18.0205   20.3981 H   0  0  0  0  0  0  0  0  0  0  0  0
   18.8499   19.3476   19.5002 H   0  0  0  0  0  0  0  0  0  0  0  0
   20.1967   18.3126   20.8857 C   0  0  0  0  0  0  0  0  0  0  0  0
   21.1141   18.6012   20.3536 H   0  0  0  0  0  0  0  0  0  0  0  0
   20.3493   17.2855   21.2455 H   0  0  0  0  0  0  0  0  0  0  0  0
   19.9693   19.2596   22.0846 C   0  0  0  0  0  0  0  0  0  0  0  0
   19.8257   20.2853   21.7176 H   0  0  0  0  0  0  0  0  0  0  0  0
   19.0407   18.9759   22.5950 H   0  0  0  0  0  0  0  0  0  0  0  0
   21.1599   19.2304   23.0732 C   0  0  0  0  0  0  0  0  0  0  0  0
   22.0750   19.5024   22.5291 H   0  0  0  0  0  0  0  0  0  0  0  0
   21.3291   18.2106   23.4401 H   0  0  0  0  0  0  0  0  0  0  0  0
   21.0006   20.2066   24.2665 C   0  0  0  0  0  0  0  0  0  0  0  0
   21.9097   20.1586   24.8817 H   0  0  0  0  0  0  0  0  0  0  0  0
   20.9587   21.2333   23.8772 H   0  0  0  0  0  0  0  0  0  0  0  0
   19.7680   19.9753   25.1816 C   0  0  0  0  0  0  0  0  0  0  0  0
   18.8331   20.1235   24.6263 H   0  0  0  0  0  0  0  0  0  0  0  0
   19.7775   20.7545   25.9552 H   0  0  0  0  0  0  0  0  0  0  0  0
   19.7532   18.6084   25.8970 C   0  0  0  0  0  0  0  0  0  0  0  0
   20.7631   18.3556   26.2308 H   0  0  0  0  0  0  0  0  0  0  0  0
   19.1108   18.6733   26.7794 H   0  0  0  0  0  0  0  0  0  0  0  0
   19.2269   17.4675   25.0488 N   0  3  0  0  0  0  0  0  0  0  0  0
   19.2683   16.5721   25.5479 H   0  0  0  0  0  0  0  0  0  0  0  0
   19.7660   17.3616   24.1843 H   0  0  0  0  0  0  0  0  0  0  0  0
   18.2485   17.6153   24.7811 H   0  0  0  0  0  0  0  0  0  0  0  0
  1  2  1  0  0  0  0
  1  3  1  0  0  0  0
  1  4  1  0  0  0  0
  1  5  1  0  0  0  0
  5  6  1  0  0  0  0
  5  7  1  0  0  0  0
  5  8  1  0  0  0  0
  8  9  1  0  0  0  0
  8 10  1  0  0  0  0
  8 11  1  0  0  0  0
 11 12  1  0  0  0  0
 11 13  1  0  0  0  0
 11 14  1  0  0  0  0
 14 15  1  0  0  0  0
 14 16  1  0  0  0  0
 14 17  1  0  0  0  0
 17 18  1  0  0  0  0
 17 19  1  0  0  0  0
 17 20  1  0  0  0  0
 20 21  1  0  0  0  0
 20 22  1  0  0  0  0
 20 23  1  0  0  0  0
 23 24  1  0  0  0  0
 23 25  1  0  0  0  0
 23 26  1  0  0  0  0
M  END
> <VM2 Rank>
167

> <Conf_Id>
267

> <Probability>
0.00

> <Sum Probability>
99.93

> <Delta G>
4.465

> <G>
52.727

> <E>
19.612

> <-TS>
33.114

> <U+W>
-1.850

> <U>
51.717

> <W>
-53.567

> <W(PB)>
-55.821

> <W(SA)>
2.254

> <Valence>
4.225

> <Coulomb>
47.188

> <VdW>
0.304

> <VdW6>
-8.652

> <VdW12>
8.956

> <Bond>
0.232

> <Angle>
1.463

> <Pdih>
2.531

> <Idih>
0.000

> <Tether>
0.000

$$$$
VeraChem MOL file


 26 25  0  0  0  0  0  0  0  0999 V2000     
   20.7692   20.1527   20.6763 C   0  0  0  0  0  0  0  0  0  0  0  0
   21.2633   19.6623   19.8276 H   0  0  0  0  0  0  0  0  0  0  0  0
   20.6262   21.2094   20.4160 H   0  0  0  0  0  0  0  0  0  0  0  0
   21.4491   20.1118   21.5356 H   0  0  0  0  0  0  0  0  0  0  0  0
   19.4112   19.4829   20.9872 C   0  0  0  0  0  0  0  0  0  0  0  0
   18.7492   19.6177   20.1205 H   0  0  0  0  0  0  0  0  0  0  0  0
   18.9147   19.9950   21.8212 H   0  0  0  0  0  0  0  0  0  0  0  0
   19.5290   17.9676   21.2823 C   0  0  0  0  0  0  0  0  0  0  0  0
   18.5189   17.5503   21.3954 H   0  0  0  0  0  0  0  0  0  0  0  0
   19.9571   17.4722   20.4000 H   0  0  0  0  0  0  0  0  0  0  0  0
   20.3740   17.5787   22.5255 C   0  0  0  0  0  0  0  0  0  0  0  0
   21.4127   17.9161   22.4120 H   0  0  0  0  0  0  0  0  0  0  0  0
   20.4282   16.4815   22.5485 H   0  0  0  0  0  0  0  0  0  0  0  0
   19.7909   18.0519   23.8832 C   0  0  0  0  0  0  0  0  0  0  0  0
   18.6965   18.1252   23.8187 H   0  0  0  0  0  0  0  0  0  0  0  0
   19.9995   17.2747   24.6303 H   0  0  0  0  0  0  0  0  0  0  0  0
   20.3904   19.3894   24.3868 C   0  0  0  0  0  0  0  0  0  0  0  0
   20.2319   20.1792   23.6451 H   0  0  0  0  0  0  0  0  0  0  0  0
   21.4774   19.2905   24.5067 H   0  0  0  0  0  0  0  0  0  0  0  0
   19.7691   19.8538   25.7182 C   0  0  0  0  0  0  0  0  0  0  0  0
   20.1673   20.8379   25.9799 H   0  0  0  0  0  0  0  0  0  0  0  0
   18.6851   19.9434   25.6068 H   0  0  0  0  0  0  0  0  0  0  0  0
   20.0473   18.9221   26.8815 N   0  3  0  0  0  0  0  0  0  0  0  0
   19.6318   19.2673   27.7535 H   0  0  0  0  0  0  0  0  0  0  0  0
   21.0526   18.8142   27.0510 H   0  0  0  0  0  0  0  0  0  0  0  0
   19.6652   17.9856   26.7176 H   0  0  0  0  0  0  0  0  0  0  0  0
  1  2  1  0  0  0  0
  1  3  1  0  0  0  0
  1  4  1  0  0  0  0
  1  5  1  0  0  0  0
  5  6  1  0  0  0  0
  5  7  1  0  0  0  0
  5  8  1  0  0  0  0
  8  9  1  0  0  0  0
  8 10  1  0  0  0  0
  8 11  1  0  0  0  0
 11 12  1  0  0  0  0
 11 13  1  0  0  0  0
 11 14  1  0  0  0  0
 14 15  1  0  0  0  0
 14 16  1  0  0  0  0
 14 17  1  0  0  0  0
 17 18  1  0  0  0  0
 17 19  1  0  0  0  0
 17 20  1  0  0  0  0
 20 21  1  0  0  0  0
 20 22  1  0  0  0  0
 20 23  1  0  0  0  0
 23 24  1  0  0  0  0
 23 25  1  0  0  0  0
 23 26  1  0  0  0  0
M  END
> <VM2 Rank>
168

> <Conf_Id>
1090

> <Probability>
0.00

> <Sum Probability>
99.93

> <Delta G>
4.471

> <G>
52.732

> <E>
19.467

> <-TS>
33.265

> <U+W>
-1.995

> <U>
51.906

> <W>
-53.901

> <W(PB)>
-56.108

> <W(SA)>
2.207

> <Valence>
5.914

> <Coulomb>
45.360

> <VdW>
0.633

> <VdW6>
-8.890

> <VdW12>
9.523

> <Bond>
0.284

> <Angle>
1.759

> <Pdih>
3.872

> <Idih>
0.000

> <Tether>
0.000

$$$$
VeraChem MOL file


 26 25  0  0  0  0  0  0  0  0999 V2000     
   19.8645   18.9878   19.7040 C   0  0  0  0  0  0  0  0  0  0  0  0
   18.9196   19.5424   19.6360 H   0  0  0  0  0  0  0  0  0  0  0  0
   20.6829   19.7119   19.8002 H   0  0  0  0  0  0  0  0  0  0  0  0
   20.0083   18.4528   18.7563 H   0  0  0  0  0  0  0  0  0  0  0  0
   19.8422   17.9939   20.8875 C   0  0  0  0  0  0  0  0  0  0  0  0
   20.8100   17.4776   20.9551 H   0  0  0  0  0  0  0  0  0  0  0  0
   19.0933   17.2165   20.6810 H   0  0  0  0  0  0  0  0  0  0  0  0
   19.5066   18.6566   22.2456 C   0  0  0  0  0  0  0  0  0  0  0  0
   18.5327   19.1598   22.1739 H   0  0  0  0  0  0  0  0  0  0  0  0
   19.3869   17.8602   22.9877 H   0  0  0  0  0  0  0  0  0  0  0  0
   20.5821   19.6686   22.7184 C   0  0  0  0  0  0  0  0  0  0  0  0
   20.6395   20.4823   21.9838 H   0  0  0  0  0  0  0  0  0  0  0  0
   21.5736   19.1956   22.7264 H   0  0  0  0  0  0  0  0  0  0  0  0
   20.2851   20.3038   24.1022 C   0  0  0  0  0  0  0  0  0  0  0  0
   20.7224   21.3118   24.1093 H   0  0  0  0  0  0  0  0  0  0  0  0
   19.2050   20.4543   24.2312 H   0  0  0  0  0  0  0  0  0  0  0  0
   20.8825   19.5367   25.3120 C   0  0  0  0  0  0  0  0  0  0  0  0
   20.7309   20.1326   26.2218 H   0  0  0  0  0  0  0  0  0  0  0  0
   21.9699   19.4530   25.1847 H   0  0  0  0  0  0  0  0  0  0  0  0
   20.3039   18.1281   25.5446 C   0  0  0  0  0  0  0  0  0  0  0  0
   20.4926   17.5006   24.6706 H   0  0  0  0  0  0  0  0  0  0  0  0
   20.8041   17.6694   26.4018 H   0  0  0  0  0  0  0  0  0  0  0  0
   18.8142   18.1236   25.8267 N   0  3  0  0  0  0  0  0  0  0  0  0
   18.5859   18.6671   26.6654 H   0  0  0  0  0  0  0  0  0  0  0  0
   18.4576   17.1739   25.9790 H   0  0  0  0  0  0  0  0  0  0  0  0
   18.2822   18.5275   25.0500 H   0  0  0  0  0  0  0  0  0  0  0  0
  1  2  1  0  0  0  0
  1  3  1  0  0  0  0
  1  4  1  0  0  0  0
  1  5  1  0  0  0  0
  5  6  1  0  0  0  0
  5  7  1  0  0  0  0
  5  8  1  0  0  0  0
  8  9  1  0  0  0  0
  8 10  1  0  0  0  0
  8 11  1  0  0  0  0
 11 12  1  0  0  0  0
 11 13  1  0  0  0  0
 11 14  1  0  0  0  0
 14 15  1  0  0  0  0
 14 16  1  0  0  0  0
 14 17  1  0  0  0  0
 17 18  1  0  0  0  0
 17 19  1  0  0  0  0
 17 20  1  0  0  0  0
 20 21  1  0  0  0  0
 20 22  1  0  0  0  0
 20 23  1  0  0  0  0
 23 24  1  0  0  0  0
 23 25  1  0  0  0  0
 23 26  1  0  0  0  0
M  END
> <VM2 Rank>
169

> <Conf_Id>
538

> <Probability>
0.00

> <Sum Probability>
99.93

> <Delta G>
4.485

> <G>
52.746

> <E>
19.756

> <-TS>
32.990

> <U+W>
-1.706

> <U>
52.488

> <W>
-54.194

> <W(PB)>
-56.463

> <W(SA)>
2.269

> <Valence>
5.467

> <Coulomb>
46.392

> <VdW>
0.629

> <VdW6>
-8.780

> <VdW12>
9.409

> <Bond>
0.279

> <Angle>
1.628

> <Pdih>
3.561

> <Idih>
0.000

> <Tether>
0.000

$$$$
VeraChem MOL file


 26 25  0  0  0  0  0  0  0  0999 V2000     
   20.5104   20.3837   20.9453 C   0  0  0  0  0  0  0  0  0  0  0  0
   20.4105   20.9547   20.0132 H   0  0  0  0  0  0  0  0  0  0  0  0
   19.7601   20.7667   21.6445 H   0  0  0  0  0  0  0  0  0  0  0  0
   21.5045   20.5956   21.3598 H   0  0  0  0  0  0  0  0  0  0  0  0
   20.3342   18.8724   20.6712 C   0  0  0  0  0  0  0  0  0  0  0  0
   21.0540   18.5881   19.8908 H   0  0  0  0  0  0  0  0  0  0  0  0
   19.3391   18.6758   20.2489 H   0  0  0  0  0  0  0  0  0  0  0  0
   20.5810   17.9726   21.9104 C   0  0  0  0  0  0  0  0  0  0  0  0
   20.9871   17.0173   21.5503 H   0  0  0  0  0  0  0  0  0  0  0  0
   21.3684   18.3988   22.5456 H   0  0  0  0  0  0  0  0  0  0  0  0
   19.3140   17.6414   22.7448 C   0  0  0  0  0  0  0  0  0  0  0  0
   19.5748   16.8720   23.4837 H   0  0  0  0  0  0  0  0  0  0  0  0
   18.5703   17.1709   22.0872 H   0  0  0  0  0  0  0  0  0  0  0  0
   18.6444   18.8340   23.4759 C   0  0  0  0  0  0  0  0  0  0  0  0
   18.2359   19.5355   22.7381 H   0  0  0  0  0  0  0  0  0  0  0  0
   17.7744   18.4566   24.0307 H   0  0  0  0  0  0  0  0  0  0  0  0
   19.5679   19.5924   24.4618 C   0  0  0  0  0  0  0  0  0  0  0  0
   18.9980   20.4093   24.9239 H   0  0  0  0  0  0  0  0  0  0  0  0
   20.3968   20.0628   23.9189 H   0  0  0  0  0  0  0  0  0  0  0  0
   20.1291   18.6809   25.5687 C   0  0  0  0  0  0  0  0  0  0  0  0
   19.3045   18.2201   26.1192 H   0  0  0  0  0  0  0  0  0  0  0  0
   20.7317   17.8861   25.1214 H   0  0  0  0  0  0  0  0  0  0  0  0
   20.9999   19.4216   26.5629 N   0  3  0  0  0  0  0  0  0  0  0  0
   20.4839   20.1676   27.0407 H   0  0  0  0  0  0  0  0  0  0  0  0
   21.8108   19.8566   26.1110 H   0  0  0  0  0  0  0  0  0  0  0  0
   21.3630   18.7965   27.2908 H   0  0  0  0  0  0  0  0  0  0  0  0
  1  2  1  0  0  0  0
  1  3  1  0  0  0  0
  1  4  1  0  0  0  0
  1  5  1  0  0  0  0
  5  6  1  0  0  0  0
  5  7  1  0  0  0  0
  5  8  1  0  0  0  0
  8  9  1  0  0  0  0
  8 10  1  0  0  0  0
  8 11  1  0  0  0  0
 11 12  1  0  0  0  0
 11 13  1  0  0  0  0
 11 14  1  0  0  0  0
 14 15  1  0  0  0  0
 14 16  1  0  0  0  0
 14 17  1  0  0  0  0
 17 18  1  0  0  0  0
 17 19  1  0  0  0  0
 17 20  1  0  0  0  0
 20 21  1  0  0  0  0
 20 22  1  0  0  0  0
 20 23  1  0  0  0  0
 23 24  1  0  0  0  0
 23 25  1  0  0  0  0
 23 26  1  0  0  0  0
M  END
> <VM2 Rank>
170

> <Conf_Id>
1614

> <Probability>
0.00

> <Sum Probability>
99.94

> <Delta G>
4.492

> <G>
52.753

> <E>
19.432

> <-TS>
33.321

> <U+W>
-2.029

> <U>
52.153

> <W>
-54.183

> <W(PB)>
-56.405

> <W(SA)>
2.222

> <Valence>
5.986

> <Coulomb>
45.782

> <VdW>
0.385

> <VdW6>
-9.289

> <VdW12>
9.674

> <Bond>
0.289

> <Angle>
2.080

> <Pdih>
3.616

> <Idih>
0.000

> <Tether>
0.000

$$$$
VeraChem MOL file


 26 25  0  0  0  0  0  0  0  0999 V2000     
   18.4296   19.3487   20.6480 C   0  0  0  0  0  0  0  0  0  0  0  0
   17.5677   18.7209   20.3874 H   0  0  0  0  0  0  0  0  0  0  0  0
   18.0549   20.2291   21.1863 H   0  0  0  0  0  0  0  0  0  0  0  0
   18.8922   19.6908   19.7130 H   0  0  0  0  0  0  0  0  0  0  0  0
   19.4376   18.5596   21.5097 C   0  0  0  0  0  0  0  0  0  0  0  0
   18.9293   18.2007   22.4128 H   0  0  0  0  0  0  0  0  0  0  0  0
   19.7698   17.6687   20.9588 H   0  0  0  0  0  0  0  0  0  0  0  0
   20.6636   19.4240   21.8873 C   0  0  0  0  0  0  0  0  0  0  0  0
   21.1368   19.7845   20.9635 H   0  0  0  0  0  0  0  0  0  0  0  0
   20.3450   20.3249   22.4261 H   0  0  0  0  0  0  0  0  0  0  0  0
   21.7305   18.6607   22.7115 C   0  0  0  0  0  0  0  0  0  0  0  0
   22.5926   19.3238   22.8672 H   0  0  0  0  0  0  0  0  0  0  0  0
   22.1068   17.8232   22.1081 H   0  0  0  0  0  0  0  0  0  0  0  0
   21.2704   18.1095   24.0886 C   0  0  0  0  0  0  0  0  0  0  0  0
   20.4889   17.3505   23.9595 H   0  0  0  0  0  0  0  0  0  0  0  0
   22.1241   17.5717   24.5237 H   0  0  0  0  0  0  0  0  0  0  0  0
   20.8268   19.1933   25.1075 C   0  0  0  0  0  0  0  0  0  0  0  0
   21.4596   20.0837   24.9968 H   0  0  0  0  0  0  0  0  0  0  0  0
   21.0067   18.8224   26.1253 H   0  0  0  0  0  0  0  0  0  0  0  0
   19.3434   19.6038   25.0008 C   0  0  0  0  0  0  0  0  0  0  0  0
   19.1556   20.4505   25.6665 H   0  0  0  0  0  0  0  0  0  0  0  0
   19.1086   19.9162   23.9816 H   0  0  0  0  0  0  0  0  0  0  0  0
   18.3790   18.4994   25.3876 N   0  3  0  0  0  0  0  0  0  0  0  0
   17.4023   18.8035   25.3122 H   0  0  0  0  0  0  0  0  0  0  0  0
   18.5223   18.1932   26.3554 H   0  0  0  0  0  0  0  0  0  0  0  0
   18.4857   17.6739   24.7908 H   0  0  0  0  0  0  0  0  0  0  0  0
  1  2  1  0  0  0  0
  1  3  1  0  0  0  0
  1  4  1  0  0  0  0
  1  5  1  0  0  0  0
  5  6  1  0  0  0  0
  5  7  1  0  0  0  0
  5  8  1  0  0  0  0
  8  9  1  0  0  0  0
  8 10  1  0  0  0  0
  8 11  1  0  0  0  0
 11 12  1  0  0  0  0
 11 13  1  0  0  0  0
 11 14  1  0  0  0  0
 14 15  1  0  0  0  0
 14 16  1  0  0  0  0
 14 17  1  0  0  0  0
 17 18  1  0  0  0  0
 17 19  1  0  0  0  0
 17 20  1  0  0  0  0
 20 21  1  0  0  0  0
 20 22  1  0  0  0  0
 20 23  1  0  0  0  0
 23 24  1  0  0  0  0
 23 25  1  0  0  0  0
 23 26  1  0  0  0  0
M  END
> <VM2 Rank>
171

> <Conf_Id>
1373

> <Probability>
0.00

> <Sum Probability>
99.94

> <Delta G>
4.495

> <G>
52.756

> <E>
19.304

> <-TS>
33.452

> <U+W>
-2.157

> <U>
52.359

> <W>
-54.516

> <W(PB)>
-56.739

> <W(SA)>
2.223

> <Valence>
5.321

> <Coulomb>
46.894

> <VdW>
0.144

> <VdW6>
-9.549

> <VdW12>
9.693

> <Bond>
0.274

> <Angle>
1.814

> <Pdih>
3.233

> <Idih>
0.000

> <Tether>
0.000

$$$$
VeraChem MOL file


 26 25  0  0  0  0  0  0  0  0999 V2000     
   20.8589   18.2368   20.0105 C   0  0  0  0  0  0  0  0  0  0  0  0
   20.1605   18.3502   19.1712 H   0  0  0  0  0  0  0  0  0  0  0  0
   21.8729   18.1727   19.5951 H   0  0  0  0  0  0  0  0  0  0  0  0
   20.6448   17.2824   20.5065 H   0  0  0  0  0  0  0  0  0  0  0  0
   20.7500   19.4291   20.9886 C   0  0  0  0  0  0  0  0  0  0  0  0
   21.0620   20.3413   20.4612 H   0  0  0  0  0  0  0  0  0  0  0  0
   21.4632   19.2940   21.8108 H   0  0  0  0  0  0  0  0  0  0  0  0
   19.3141   19.6416   21.5341 C   0  0  0  0  0  0  0  0  0  0  0  0
   19.2435   20.6294   22.0097 H   0  0  0  0  0  0  0  0  0  0  0  0
   18.6246   19.6788   20.6795 H   0  0  0  0  0  0  0  0  0  0  0  0
   18.8234   18.5521   22.5263 C   0  0  0  0  0  0  0  0  0  0  0  0
   19.2996   17.5866   22.3155 H   0  0  0  0  0  0  0  0  0  0  0  0
   17.7500   18.3935   22.3529 H   0  0  0  0  0  0  0  0  0  0  0  0
   19.0045   18.9105   24.0240 C   0  0  0  0  0  0  0  0  0  0  0  0
   18.4341   19.8212   24.2533 H   0  0  0  0  0  0  0  0  0  0  0  0
   18.5510   18.1079   24.6204 H   0  0  0  0  0  0  0  0  0  0  0  0
   20.4779   19.1047   24.4575 C   0  0  0  0  0  0  0  0  0  0  0  0
   20.9024   19.9689   23.9320 H   0  0  0  0  0  0  0  0  0  0  0  0
   21.0754   18.2295   24.1699 H   0  0  0  0  0  0  0  0  0  0  0  0
   20.6252   19.3546   25.9709 C   0  0  0  0  0  0  0  0  0  0  0  0
   21.6681   19.5912   26.1986 H   0  0  0  0  0  0  0  0  0  0  0  0
   20.0100   20.2093   26.2647 H   0  0  0  0  0  0  0  0  0  0  0  0
   20.2269   18.1696   26.8290 N   0  3  0  0  0  0  0  0  0  0  0  0
   19.2437   17.9154   26.6933 H   0  0  0  0  0  0  0  0  0  0  0  0
   20.3511   18.3647   27.8284 H   0  0  0  0  0  0  0  0  0  0  0  0
   20.7875   17.3386   26.6143 H   0  0  0  0  0  0  0  0  0  0  0  0
  1  2  1  0  0  0  0
  1  3  1  0  0  0  0
  1  4  1  0  0  0  0
  1  5  1  0  0  0  0
  5  6  1  0  0  0  0
  5  7  1  0  0  0  0
  5  8  1  0  0  0  0
  8  9  1  0  0  0  0
  8 10  1  0  0  0  0
  8 11  1  0  0  0  0
 11 12  1  0  0  0  0
 11 13  1  0  0  0  0
 11 14  1  0  0  0  0
 14 15  1  0  0  0  0
 14 16  1  0  0  0  0
 14 17  1  0  0  0  0
 17 18  1  0  0  0  0
 17 19  1  0  0  0  0
 17 20  1  0  0  0  0
 20 21  1  0  0  0  0
 20 22  1  0  0  0  0
 20 23  1  0  0  0  0
 23 24  1  0  0  0  0
 23 25  1  0  0  0  0
 23 26  1  0  0  0  0
M  END
> <VM2 Rank>
172

> <Conf_Id>
1366

> <Probability>
0.00

> <Sum Probability>
99.95

> <Delta G>
4.507

> <G>
52.768

> <E>
19.898

> <-TS>
32.870

> <U+W>
-1.563

> <U>
52.213

> <W>
-53.777

> <W(PB)>
-56.015

> <W(SA)>
2.238

> <Valence>
6.034

> <Coulomb>
45.240

> <VdW>
0.939

> <VdW6>
-8.400

> <VdW12>
9.339

> <Bond>
0.287

> <Angle>
1.514

> <Pdih>
4.234

> <Idih>
0.000

> <Tether>
0.000

$$$$
VeraChem MOL file


 26 25  0  0  0  0  0  0  0  0999 V2000     
   20.1767   19.1934   19.7144 C   0  0  0  0  0  0  0  0  0  0  0  0
   20.6554   18.8790   18.7779 H   0  0  0  0  0  0  0  0  0  0  0  0
   19.1853   18.7251   19.7502 H   0  0  0  0  0  0  0  0  0  0  0  0
   20.0425   20.2821   19.6735 H   0  0  0  0  0  0  0  0  0  0  0  0
   21.0429   18.7850   20.9276 C   0  0  0  0  0  0  0  0  0  0  0  0
   22.0610   19.1717   20.7801 H   0  0  0  0  0  0  0  0  0  0  0  0
   21.1329   17.6904   20.9659 H   0  0  0  0  0  0  0  0  0  0  0  0
   20.5033   19.3133   22.2789 C   0  0  0  0  0  0  0  0  0  0  0  0
   21.2470   19.0859   23.0499 H   0  0  0  0  0  0  0  0  0  0  0  0
   20.4278   20.4085   22.2371 H   0  0  0  0  0  0  0  0  0  0  0  0
   19.1289   18.7112   22.6698 C   0  0  0  0  0  0  0  0  0  0  0  0
   19.1726   17.6138   22.6462 H   0  0  0  0  0  0  0  0  0  0  0  0
   18.3934   19.0025   21.9088 H   0  0  0  0  0  0  0  0  0  0  0  0
   18.5982   19.1924   24.0459 C   0  0  0  0  0  0  0  0  0  0  0  0
   18.8791   20.2396   24.2204 H   0  0  0  0  0  0  0  0  0  0  0  0
   17.5003   19.1889   24.0017 H   0  0  0  0  0  0  0  0  0  0  0  0
   19.0111   18.3037   25.2495 C   0  0  0  0  0  0  0  0  0  0  0  0
   18.6660   17.2761   25.0743 H   0  0  0  0  0  0  0  0  0  0  0  0
   18.4813   18.6504   26.1467 H   0  0  0  0  0  0  0  0  0  0  0  0
   20.5213   18.2713   25.5519 C   0  0  0  0  0  0  0  0  0  0  0  0
   20.7057   17.6045   26.3985 H   0  0  0  0  0  0  0  0  0  0  0  0
   21.0638   17.8770   24.6896 H   0  0  0  0  0  0  0  0  0  0  0  0
   21.0985   19.6286   25.9030 N   0  3  0  0  0  0  0  0  0  0  0  0
   22.1037   19.5762   26.1007 H   0  0  0  0  0  0  0  0  0  0  0  0
   20.6504   20.0271   26.7345 H   0  0  0  0  0  0  0  0  0  0  0  0
   20.9731   20.3005   25.1399 H   0  0  0  0  0  0  0  0  0  0  0  0
  1  2  1  0  0  0  0
  1  3  1  0  0  0  0
  1  4  1  0  0  0  0
  1  5  1  0  0  0  0
  5  6  1  0  0  0  0
  5  7  1  0  0  0  0
  5  8  1  0  0  0  0
  8  9  1  0  0  0  0
  8 10  1  0  0  0  0
  8 11  1  0  0  0  0
 11 12  1  0  0  0  0
 11 13  1  0  0  0  0
 11 14  1  0  0  0  0
 14 15  1  0  0  0  0
 14 16  1  0  0  0  0
 14 17  1  0  0  0  0
 17 18  1  0  0  0  0
 17 19  1  0  0  0  0
 17 20  1  0  0  0  0
 20 21  1  0  0  0  0
 20 22  1  0  0  0  0
 20 23  1  0  0  0  0
 23 24  1  0  0  0  0
 23 25  1  0  0  0  0
 23 26  1  0  0  0  0
M  END
> <VM2 Rank>
173

> <Conf_Id>
751

> <Probability>
0.00

> <Sum Probability>
99.95

> <Delta G>
4.508

> <G>
52.769

> <E>
19.779

> <-TS>
32.990

> <U+W>
-1.683

> <U>
52.488

> <W>
-54.171

> <W(PB)>
-56.424

> <W(SA)>
2.253

> <Valence>
5.467

> <Coulomb>
46.392

> <VdW>
0.629

> <VdW6>
-8.780

> <VdW12>
9.409

> <Bond>
0.279

> <Angle>
1.627

> <Pdih>
3.561

> <Idih>
0.000

> <Tether>
0.000

$$$$
VeraChem MOL file


 26 25  0  0  0  0  0  0  0  0999 V2000     
   18.9626   20.1021   21.0872 C   0  0  0  0  0  0  0  0  0  0  0  0
   18.5945   19.9906   22.1124 H   0  0  0  0  0  0  0  0  0  0  0  0
   19.5669   21.0172   21.0398 H   0  0  0  0  0  0  0  0  0  0  0  0
   18.0892   20.2465   20.4383 H   0  0  0  0  0  0  0  0  0  0  0  0
   19.7802   18.8740   20.6239 C   0  0  0  0  0  0  0  0  0  0  0  0
   20.0463   19.0270   19.5687 H   0  0  0  0  0  0  0  0  0  0  0  0
   19.1568   17.9694   20.6493 H   0  0  0  0  0  0  0  0  0  0  0  0
   21.0866   18.6509   21.4296 C   0  0  0  0  0  0  0  0  0  0  0  0
   21.8354   18.2330   20.7426 H   0  0  0  0  0  0  0  0  0  0  0  0
   21.5042   19.6113   21.7589 H   0  0  0  0  0  0  0  0  0  0  0  0
   20.9613   17.6637   22.6218 C   0  0  0  0  0  0  0  0  0  0  0  0
   21.9612   17.5012   23.0473 H   0  0  0  0  0  0  0  0  0  0  0  0
   20.6409   16.6858   22.2368 H   0  0  0  0  0  0  0  0  0  0  0  0
   20.0013   18.0845   23.7622 C   0  0  0  0  0  0  0  0  0  0  0  0
   18.9771   18.1673   23.3777 H   0  0  0  0  0  0  0  0  0  0  0  0
   19.9777   17.2720   24.5002 H   0  0  0  0  0  0  0  0  0  0  0  0
   20.4199   19.3990   24.4677 C   0  0  0  0  0  0  0  0  0  0  0  0
   20.4545   20.2196   23.7409 H   0  0  0  0  0  0  0  0  0  0  0  0
   21.4350   19.2995   24.8744 H   0  0  0  0  0  0  0  0  0  0  0  0
   19.4508   19.8018   25.5957 C   0  0  0  0  0  0  0  0  0  0  0  0
   19.7447   20.7764   25.9950 H   0  0  0  0  0  0  0  0  0  0  0  0
   18.4368   19.8890   25.1960 H   0  0  0  0  0  0  0  0  0  0  0  0
   19.4183   18.8228   26.7529 N   0  3  0  0  0  0  0  0  0  0  0  0
   19.1127   17.8917   26.4541 H   0  0  0  0  0  0  0  0  0  0  0  0
   18.7748   19.1275   27.4914 H   0  0  0  0  0  0  0  0  0  0  0  0
   20.3412   18.7147   27.1858 H   0  0  0  0  0  0  0  0  0  0  0  0
  1  2  1  0  0  0  0
  1  3  1  0  0  0  0
  1  4  1  0  0  0  0
  1  5  1  0  0  0  0
  5  6  1  0  0  0  0
  5  7  1  0  0  0  0
  5  8  1  0  0  0  0
  8  9  1  0  0  0  0
  8 10  1  0  0  0  0
  8 11  1  0  0  0  0
 11 12  1  0  0  0  0
 11 13  1  0  0  0  0
 11 14  1  0  0  0  0
 14 15  1  0  0  0  0
 14 16  1  0  0  0  0
 14 17  1  0  0  0  0
 17 18  1  0  0  0  0
 17 19  1  0  0  0  0
 17 20  1  0  0  0  0
 20 21  1  0  0  0  0
 20 22  1  0  0  0  0
 20 23  1  0  0  0  0
 23 24  1  0  0  0  0
 23 25  1  0  0  0  0
 23 26  1  0  0  0  0
M  END
> <VM2 Rank>
174

> <Conf_Id>
536

> <Probability>
0.00

> <Sum Probability>
99.95

> <Delta G>
4.513

> <G>
52.774

> <E>
19.499

> <-TS>
33.275

> <U+W>
-1.963

> <U>
51.929

> <W>
-53.891

> <W(PB)>
-56.113

> <W(SA)>
2.222

> <Valence>
5.867

> <Coulomb>
45.498

> <VdW>
0.563

> <VdW6>
-9.057

> <VdW12>
9.621

> <Bond>
0.287

> <Angle>
1.896

> <Pdih>
3.685

> <Idih>
0.000

> <Tether>
0.000

$$$$
VeraChem MOL file


 26 25  0  0  0  0  0  0  0  0999 V2000     
   19.4422   20.4185   21.1032 C   0  0  0  0  0  0  0  0  0  0  0  0
   19.6823   21.2977   20.4913 H   0  0  0  0  0  0  0  0  0  0  0  0
   18.3667   20.2253   20.9998 H   0  0  0  0  0  0  0  0  0  0  0  0
   19.6415   20.6814   22.1472 H   0  0  0  0  0  0  0  0  0  0  0  0
   20.2712   19.1979   20.6403 C   0  0  0  0  0  0  0  0  0  0  0  0
   21.3455   19.4136   20.7222 H   0  0  0  0  0  0  0  0  0  0  0  0
   20.0751   19.0460   19.5696 H   0  0  0  0  0  0  0  0  0  0  0  0
   19.9262   17.8853   21.3908 C   0  0  0  0  0  0  0  0  0  0  0  0
   18.8649   17.8697   21.6708 H   0  0  0  0  0  0  0  0  0  0  0  0
   20.0484   17.0538   20.6830 H   0  0  0  0  0  0  0  0  0  0  0  0
   20.8269   17.5751   22.6173 C   0  0  0  0  0  0  0  0  0  0  0  0
   21.8689   17.4962   22.2779 H   0  0  0  0  0  0  0  0  0  0  0  0
   20.5643   16.5794   23.0007 H   0  0  0  0  0  0  0  0  0  0  0  0
   20.7637   18.5877   23.7877 C   0  0  0  0  0  0  0  0  0  0  0  0
   21.4851   18.2668   24.5506 H   0  0  0  0  0  0  0  0  0  0  0  0
   21.1074   19.5730   23.4489 H   0  0  0  0  0  0  0  0  0  0  0  0
   19.3591   18.6991   24.4322 C   0  0  0  0  0  0  0  0  0  0  0  0
   19.0335   17.7148   24.7941 H   0  0  0  0  0  0  0  0  0  0  0  0
   18.6256   19.0127   23.6798 H   0  0  0  0  0  0  0  0  0  0  0  0
   19.3167   19.7134   25.5913 C   0  0  0  0  0  0  0  0  0  0  0  0
   19.6529   20.6915   25.2368 H   0  0  0  0  0  0  0  0  0  0  0  0
   18.2875   19.8148   25.9463 H   0  0  0  0  0  0  0  0  0  0  0  0
   20.1750   19.3221   26.7782 N   0  3  0  0  0  0  0  0  0  0  0  0
   21.1642   19.2454   26.5226 H   0  0  0  0  0  0  0  0  0  0  0  0
   19.8922   18.4183   27.1708 H   0  0  0  0  0  0  0  0  0  0  0  0
   20.1132   20.0105   27.5362 H   0  0  0  0  0  0  0  0  0  0  0  0
  1  2  1  0  0  0  0
  1  3  1  0  0  0  0
  1  4  1  0  0  0  0
  1  5  1  0  0  0  0
  5  6  1  0  0  0  0
  5  7  1  0  0  0  0
  5  8  1  0  0  0  0
  8  9  1  0  0  0  0
  8 10  1  0  0  0  0
  8 11  1  0  0  0  0
 11 12  1  0  0  0  0
 11 13  1  0  0  0  0
 11 14  1  0  0  0  0
 14 15  1  0  0  0  0
 14 16  1  0  0  0  0
 14 17  1  0  0  0  0
 17 18  1  0  0  0  0
 17 19  1  0  0  0  0
 17 20  1  0  0  0  0
 20 21  1  0  0  0  0
 20 22  1  0  0  0  0
 20 23  1  0  0  0  0
 23 24  1  0  0  0  0
 23 25  1  0  0  0  0
 23 26  1  0  0  0  0
M  END
> <VM2 Rank>
175

> <Conf_Id>
1341

> <Probability>
0.00

> <Sum Probability>
99.96

> <Delta G>
4.517

> <G>
52.778

> <E>
19.503

> <-TS>
33.275

> <U+W>
-1.959

> <U>
51.929

> <W>
-53.887

> <W(PB)>
-56.122

> <W(SA)>
2.235

> <Valence>
5.867

> <Coulomb>
45.498

> <VdW>
0.563

> <VdW6>
-9.057

> <VdW12>
9.620

> <Bond>
0.287

> <Angle>
1.896

> <Pdih>
3.684

> <Idih>
0.000

> <Tether>
0.000

$$$$
VeraChem MOL file


 26 25  0  0  0  0  0  0  0  0999 V2000     
   19.7074   20.4744   20.9915 C   0  0  0  0  0  0  0  0  0  0  0  0
   18.7203   20.2776   21.4272 H   0  0  0  0  0  0  0  0  0  0  0  0
   20.3352   20.9608   21.7491 H   0  0  0  0  0  0  0  0  0  0  0  0
   19.5649   21.1846   20.1667 H   0  0  0  0  0  0  0  0  0  0  0  0
   20.3617   19.1741   20.4763 C   0  0  0  0  0  0  0  0  0  0  0  0
   21.2547   19.4374   19.8924 H   0  0  0  0  0  0  0  0  0  0  0  0
   19.6778   18.6738   19.7765 H   0  0  0  0  0  0  0  0  0  0  0  0
   20.7804   18.1842   21.5932 C   0  0  0  0  0  0  0  0  0  0  0  0
   21.2801   17.3344   21.1080 H   0  0  0  0  0  0  0  0  0  0  0  0
   21.5431   18.6462   22.2317 H   0  0  0  0  0  0  0  0  0  0  0  0
   19.6044   17.6275   22.4417 C   0  0  0  0  0  0  0  0  0  0  0  0
   19.8221   16.5836   22.7063 H   0  0  0  0  0  0  0  0  0  0  0  0
   18.6965   17.5892   21.8243 H   0  0  0  0  0  0  0  0  0  0  0  0
   19.3083   18.4086   23.7488 C   0  0  0  0  0  0  0  0  0  0  0  0
   19.1616   19.4719   23.5302 H   0  0  0  0  0  0  0  0  0  0  0  0
   18.3554   18.0460   24.1587 H   0  0  0  0  0  0  0  0  0  0  0  0
   20.4071   18.2369   24.8281 C   0  0  0  0  0  0  0  0  0  0  0  0
   21.3598   18.6565   24.4826 H   0  0  0  0  0  0  0  0  0  0  0  0
   20.5811   17.1670   25.0029 H   0  0  0  0  0  0  0  0  0  0  0  0
   20.0255   18.8927   26.1691 C   0  0  0  0  0  0  0  0  0  0  0  0
   19.0763   18.4817   26.5232 H   0  0  0  0  0  0  0  0  0  0  0  0
   20.7935   18.6682   26.9143 H   0  0  0  0  0  0  0  0  0  0  0  0
   19.8862   20.4006   26.0923 N   0  3  0  0  0  0  0  0  0  0  0  0
   20.7564   20.8480   25.7866 H   0  0  0  0  0  0  0  0  0  0  0  0
   19.6440   20.8069   27.0025 H   0  0  0  0  0  0  0  0  0  0  0  0
   19.1530   20.6807   25.4338 H   0  0  0  0  0  0  0  0  0  0  0  0
  1  2  1  0  0  0  0
  1  3  1  0  0  0  0
  1  4  1  0  0  0  0
  1  5  1  0  0  0  0
  5  6  1  0  0  0  0
  5  7  1  0  0  0  0
  5  8  1  0  0  0  0
  8  9  1  0  0  0  0
  8 10  1  0  0  0  0
  8 11  1  0  0  0  0
 11 12  1  0  0  0  0
 11 13  1  0  0  0  0
 11 14  1  0  0  0  0
 14 15  1  0  0  0  0
 14 16  1  0  0  0  0
 14 17  1  0  0  0  0
 17 18  1  0  0  0  0
 17 19  1  0  0  0  0
 17 20  1  0  0  0  0
 20 21  1  0  0  0  0
 20 22  1  0  0  0  0
 20 23  1  0  0  0  0
 23 24  1  0  0  0  0
 23 25  1  0  0  0  0
 23 26  1  0  0  0  0
M  END
> <VM2 Rank>
176

> <Conf_Id>
798

> <Probability>
0.00

> <Sum Probability>
99.96

> <Delta G>
4.525

> <G>
52.786

> <E>
19.970

> <-TS>
32.816

> <U+W>
-1.492

> <U>
52.644

> <W>
-54.137

> <W(PB)>
-56.383

> <W(SA)>
2.247

> <Valence>
5.947

> <Coulomb>
45.853

> <VdW>
0.845

> <VdW6>
-8.494

> <VdW12>
9.339

> <Bond>
0.292

> <Angle>
1.527

> <Pdih>
4.127

> <Idih>
0.000

> <Tether>
0.000

$$$$
VeraChem MOL file


 26 25  0  0  0  0  0  0  0  0999 V2000     
   20.3633   20.6250   20.7127 C   0  0  0  0  0  0  0  0  0  0  0  0
   19.6763   21.2992   21.2405 H   0  0  0  0  0  0  0  0  0  0  0  0
   21.2901   21.1780   20.5119 H   0  0  0  0  0  0  0  0  0  0  0  0
   19.9113   20.3634   19.7471 H   0  0  0  0  0  0  0  0  0  0  0  0
   20.6531   19.3619   21.5503 C   0  0  0  0  0  0  0  0  0  0  0  0
   21.1401   19.6600   22.4867 H   0  0  0  0  0  0  0  0  0  0  0  0
   21.3671   18.7229   21.0122 H   0  0  0  0  0  0  0  0  0  0  0  0
   19.3608   18.5640   21.8437 C   0  0  0  0  0  0  0  0  0  0  0  0
   18.6329   19.1948   22.3689 H   0  0  0  0  0  0  0  0  0  0  0  0
   18.8871   18.2995   20.8883 H   0  0  0  0  0  0  0  0  0  0  0  0
   19.6055   17.2581   22.6405 C   0  0  0  0  0  0  0  0  0  0  0  0
   20.2556   16.6013   22.0462 H   0  0  0  0  0  0  0  0  0  0  0  0
   18.6510   16.7223   22.7355 H   0  0  0  0  0  0  0  0  0  0  0  0
   20.2282   17.4216   24.0537 C   0  0  0  0  0  0  0  0  0  0  0  0
   20.3675   16.4123   24.4649 H   0  0  0  0  0  0  0  0  0  0  0  0
   21.2379   17.8449   23.9845 H   0  0  0  0  0  0  0  0  0  0  0  0
   19.3589   18.2245   25.0584 C   0  0  0  0  0  0  0  0  0  0  0  0
   19.5818   17.8819   26.0777 H   0  0  0  0  0  0  0  0  0  0  0  0
   18.2979   17.9968   24.8911 H   0  0  0  0  0  0  0  0  0  0  0  0
   19.5682   19.7521   25.0083 C   0  0  0  0  0  0  0  0  0  0  0  0
   19.4206   20.1222   23.9921 H   0  0  0  0  0  0  0  0  0  0  0  0
   18.8329   20.2375   25.6557 H   0  0  0  0  0  0  0  0  0  0  0  0
   20.9429   20.1917   25.4733 N   0  3  0  0  0  0  0  0  0  0  0  0
   21.0499   21.2111   25.4341 H   0  0  0  0  0  0  0  0  0  0  0  0
   21.6874   19.7871   24.8979 H   0  0  0  0  0  0  0  0  0  0  0  0
   21.1231   19.9099   26.4424 H   0  0  0  0  0  0  0  0  0  0  0  0
  1  2  1  0  0  0  0
  1  3  1  0  0  0  0
  1  4  1  0  0  0  0
  1  5  1  0  0  0  0
  5  6  1  0  0  0  0
  5  7  1  0  0  0  0
  5  8  1  0  0  0  0
  8  9  1  0  0  0  0
  8 10  1  0  0  0  0
  8 11  1  0  0  0  0
 11 12  1  0  0  0  0
 11 13  1  0  0  0  0
 11 14  1  0  0  0  0
 14 15  1  0  0  0  0
 14 16  1  0  0  0  0
 14 17  1  0  0  0  0
 17 18  1  0  0  0  0
 17 19  1  0  0  0  0
 17 20  1  0  0  0  0
 20 21  1  0  0  0  0
 20 22  1  0  0  0  0
 20 23  1  0  0  0  0
 23 24  1  0  0  0  0
 23 25  1  0  0  0  0
 23 26  1  0  0  0  0
M  END
> <VM2 Rank>
177

> <Conf_Id>
413

> <Probability>
0.00

> <Sum Probability>
99.96

> <Delta G>
4.534

> <G>
52.795

> <E>
19.343

> <-TS>
33.452

> <U+W>
-2.119

> <U>
52.359

> <W>
-54.478

> <W(PB)>
-56.700

> <W(SA)>
2.222

> <Valence>
5.321

> <Coulomb>
46.894

> <VdW>
0.144

> <VdW6>
-9.549

> <VdW12>
9.693

> <Bond>
0.274

> <Angle>
1.814

> <Pdih>
3.233

> <Idih>
0.000

> <Tether>
0.000

$$$$
VeraChem MOL file


 26 25  0  0  0  0  0  0  0  0999 V2000     
   21.1224   19.8806   20.8303 C   0  0  0  0  0  0  0  0  0  0  0  0
   20.7596   20.5970   21.5770 H   0  0  0  0  0  0  0  0  0  0  0  0
   22.1995   20.0497   20.7038 H   0  0  0  0  0  0  0  0  0  0  0  0
   20.6328   20.1073   19.8744 H   0  0  0  0  0  0  0  0  0  0  0  0
   20.8499   18.4204   21.2581 C   0  0  0  0  0  0  0  0  0  0  0  0
   21.3599   18.1980   22.2037 H   0  0  0  0  0  0  0  0  0  0  0  0
   21.3004   17.7488   20.5140 H   0  0  0  0  0  0  0  0  0  0  0  0
   19.3426   18.0853   21.3706 C   0  0  0  0  0  0  0  0  0  0  0  0
   18.8787   18.2291   20.3850 H   0  0  0  0  0  0  0  0  0  0  0  0
   19.2348   17.0153   21.5953 H   0  0  0  0  0  0  0  0  0  0  0  0
   18.5375   18.9015   22.4178 C   0  0  0  0  0  0  0  0  0  0  0  0
   17.4851   18.6008   22.3213 H   0  0  0  0  0  0  0  0  0  0  0  0
   18.5546   19.9718   22.1737 H   0  0  0  0  0  0  0  0  0  0  0  0
   18.9614   18.6697   23.8922 C   0  0  0  0  0  0  0  0  0  0  0  0
   18.0624   18.7302   24.5213 H   0  0  0  0  0  0  0  0  0  0  0  0
   19.3472   17.6487   24.0120 H   0  0  0  0  0  0  0  0  0  0  0  0
   19.9833   19.7086   24.4197 C   0  0  0  0  0  0  0  0  0  0  0  0
   19.5791   20.7192   24.2752 H   0  0  0  0  0  0  0  0  0  0  0  0
   20.9184   19.6645   23.8512 H   0  0  0  0  0  0  0  0  0  0  0  0
   20.2957   19.5218   25.9167 C   0  0  0  0  0  0  0  0  0  0  0  0
   20.9470   20.3321   26.2555 H   0  0  0  0  0  0  0  0  0  0  0  0
   19.3686   19.5652   26.4946 H   0  0  0  0  0  0  0  0  0  0  0  0
   20.9881   18.2113   26.2356 N   0  3  0  0  0  0  0  0  0  0  0  0
   21.1904   18.1219   27.2373 H   0  0  0  0  0  0  0  0  0  0  0  0
   21.8813   18.1221   25.7406 H   0  0  0  0  0  0  0  0  0  0  0  0
   20.4133   17.4049   25.9726 H   0  0  0  0  0  0  0  0  0  0  0  0
  1  2  1  0  0  0  0
  1  3  1  0  0  0  0
  1  4  1  0  0  0  0
  1  5  1  0  0  0  0
  5  6  1  0  0  0  0
  5  7  1  0  0  0  0
  5  8  1  0  0  0  0
  8  9  1  0  0  0  0
  8 10  1  0  0  0  0
  8 11  1  0  0  0  0
 11 12  1  0  0  0  0
 11 13  1  0  0  0  0
 11 14  1  0  0  0  0
 14 15  1  0  0  0  0
 14 16  1  0  0  0  0
 14 17  1  0  0  0  0
 17 18  1  0  0  0  0
 17 19  1  0  0  0  0
 17 20  1  0  0  0  0
 20 21  1  0  0  0  0
 20 22  1  0  0  0  0
 20 23  1  0  0  0  0
 23 24  1  0  0  0  0
 23 25  1  0  0  0  0
 23 26  1  0  0  0  0
M  END
> <VM2 Rank>
178

> <Conf_Id>
975

> <Probability>
0.00

> <Sum Probability>
99.97

> <Delta G>
4.545

> <G>
52.806

> <E>
19.544

> <-TS>
33.262

> <U+W>
-1.918

> <U>
52.272

> <W>
-54.189

> <W(PB)>
-56.407

> <W(SA)>
2.218

> <Valence>
5.856

> <Coulomb>
45.879

> <VdW>
0.537

> <VdW6>
-9.012

> <VdW12>
9.549

> <Bond>
0.284

> <Angle>
1.818

> <Pdih>
3.754

> <Idih>
0.000

> <Tether>
0.000

$$$$
VeraChem MOL file


 26 25  0  0  0  0  0  0  0  0999 V2000     
   20.0366   20.1567   20.0353 C   0  0  0  0  0  0  0  0  0  0  0  0
   21.0415   20.1051   19.5963 H   0  0  0  0  0  0  0  0  0  0  0  0
   19.3089   20.1370   19.2136 H   0  0  0  0  0  0  0  0  0  0  0  0
   19.9374   21.1210   20.5504 H   0  0  0  0  0  0  0  0  0  0  0  0
   19.7938   18.9818   21.0062 C   0  0  0  0  0  0  0  0  0  0  0  0
   19.8690   18.0331   20.4569 H   0  0  0  0  0  0  0  0  0  0  0  0
   18.7681   19.0455   21.3934 H   0  0  0  0  0  0  0  0  0  0  0  0
   20.8060   18.9901   22.1756 C   0  0  0  0  0  0  0  0  0  0  0  0
   21.8246   18.9946   21.7638 H   0  0  0  0  0  0  0  0  0  0  0  0
   20.7041   19.9246   22.7411 H   0  0  0  0  0  0  0  0  0  0  0  0
   20.6664   17.7686   23.1212 C   0  0  0  0  0  0  0  0  0  0  0  0
   21.4628   17.7963   23.8749 H   0  0  0  0  0  0  0  0  0  0  0  0
   20.8534   16.8545   22.5408 H   0  0  0  0  0  0  0  0  0  0  0  0
   19.2900   17.6272   23.8243 C   0  0  0  0  0  0  0  0  0  0  0  0
   18.5240   17.4081   23.0686 H   0  0  0  0  0  0  0  0  0  0  0  0
   19.3183   16.7411   24.4735 H   0  0  0  0  0  0  0  0  0  0  0  0
   18.8225   18.8454   24.6648 C   0  0  0  0  0  0  0  0  0  0  0  0
   17.8053   18.6335   25.0197 H   0  0  0  0  0  0  0  0  0  0  0  0
   18.7360   19.7442   24.0411 H   0  0  0  0  0  0  0  0  0  0  0  0
   19.6941   19.1348   25.9047 C   0  0  0  0  0  0  0  0  0  0  0  0
   19.1194   19.7393   26.6117 H   0  0  0  0  0  0  0  0  0  0  0  0
   19.9567   18.1953   26.3981 H   0  0  0  0  0  0  0  0  0  0  0  0
   20.9717   19.8944   25.6089 N   0  3  0  0  0  0  0  0  0  0  0  0
   20.7788   20.8201   25.2133 H   0  0  0  0  0  0  0  0  0  0  0  0
   21.5608   19.3929   24.9381 H   0  0  0  0  0  0  0  0  0  0  0  0
   21.5310   20.0417   26.4562 H   0  0  0  0  0  0  0  0  0  0  0  0
  1  2  1  0  0  0  0
  1  3  1  0  0  0  0
  1  4  1  0  0  0  0
  1  5  1  0  0  0  0
  5  6  1  0  0  0  0
  5  7  1  0  0  0  0
  5  8  1  0  0  0  0
  8  9  1  0  0  0  0
  8 10  1  0  0  0  0
  8 11  1  0  0  0  0
 11 12  1  0  0  0  0
 11 13  1  0  0  0  0
 11 14  1  0  0  0  0
 14 15  1  0  0  0  0
 14 16  1  0  0  0  0
 14 17  1  0  0  0  0
 17 18  1  0  0  0  0
 17 19  1  0  0  0  0
 17 20  1  0  0  0  0
 20 21  1  0  0  0  0
 20 22  1  0  0  0  0
 20 23  1  0  0  0  0
 23 24  1  0  0  0  0
 23 25  1  0  0  0  0
 23 26  1  0  0  0  0
M  END
> <VM2 Rank>
179

> <Conf_Id>
269

> <Probability>
0.00

> <Sum Probability>
99.97

> <Delta G>
4.570

> <G>
52.831

> <E>
19.509

> <-TS>
33.322

> <U+W>
-1.953

> <U>
52.118

> <W>
-54.071

> <W(PB)>
-56.282

> <W(SA)>
2.211

> <Valence>
4.669

> <Coulomb>
47.148

> <VdW>
0.301

> <VdW6>
-9.413

> <VdW12>
9.715

> <Bond>
0.278

> <Angle>
1.801

> <Pdih>
2.590

> <Idih>
0.000

> <Tether>
0.000

$$$$
VeraChem MOL file


 26 25  0  0  0  0  0  0  0  0999 V2000     
   18.8123   19.8841   20.9622 C   0  0  0  0  0  0  0  0  0  0  0  0
   18.2539   20.3201   20.1238 H   0  0  0  0  0  0  0  0  0  0  0  0
   18.0842   19.4752   21.6746 H   0  0  0  0  0  0  0  0  0  0  0  0
   19.3600   20.7000   21.4494 H   0  0  0  0  0  0  0  0  0  0  0  0
   19.7744   18.7871   20.4568 C   0  0  0  0  0  0  0  0  0  0  0  0
   20.5347   19.2402   19.8055 H   0  0  0  0  0  0  0  0  0  0  0  0
   19.2094   18.0886   19.8238 H   0  0  0  0  0  0  0  0  0  0  0  0
   20.4676   17.9777   21.5824 C   0  0  0  0  0  0  0  0  0  0  0  0
   19.7144   17.4391   22.1701 H   0  0  0  0  0  0  0  0  0  0  0  0
   21.0748   17.1992   21.1004 H   0  0  0  0  0  0  0  0  0  0  0  0
   21.4010   18.8123   22.5018 C   0  0  0  0  0  0  0  0  0  0  0  0
   21.8215   19.6503   21.9290 H   0  0  0  0  0  0  0  0  0  0  0  0
   22.2620   18.1926   22.7879 H   0  0  0  0  0  0  0  0  0  0  0  0
   20.7389   19.3518   23.7967 C   0  0  0  0  0  0  0  0  0  0  0  0
   21.4272   20.0709   24.2620 H   0  0  0  0  0  0  0  0  0  0  0  0
   19.8303   19.9131   23.5526 H   0  0  0  0  0  0  0  0  0  0  0  0
   20.4138   18.2415   24.8278 C   0  0  0  0  0  0  0  0  0  0  0  0
   21.3196   17.6536   25.0268 H   0  0  0  0  0  0  0  0  0  0  0  0
   19.6698   17.5434   24.4253 H   0  0  0  0  0  0  0  0  0  0  0  0
   19.8994   18.8090   26.1647 C   0  0  0  0  0  0  0  0  0  0  0  0
   19.7684   17.9919   26.8793 H   0  0  0  0  0  0  0  0  0  0  0  0
   20.6339   19.5069   26.5756 H   0  0  0  0  0  0  0  0  0  0  0  0
   18.5736   19.5354   26.0486 N   0  3  0  0  0  0  0  0  0  0  0  0
   18.2533   19.8898   26.9564 H   0  0  0  0  0  0  0  0  0  0  0  0
   17.8345   18.9230   25.6885 H   0  0  0  0  0  0  0  0  0  0  0  0
   18.6359   20.3400   25.4172 H   0  0  0  0  0  0  0  0  0  0  0  0
  1  2  1  0  0  0  0
  1  3  1  0  0  0  0
  1  4  1  0  0  0  0
  1  5  1  0  0  0  0
  5  6  1  0  0  0  0
  5  7  1  0  0  0  0
  5  8  1  0  0  0  0
  8  9  1  0  0  0  0
  8 10  1  0  0  0  0
  8 11  1  0  0  0  0
 11 12  1  0  0  0  0
 11 13  1  0  0  0  0
 11 14  1  0  0  0  0
 14 15  1  0  0  0  0
 14 16  1  0  0  0  0
 14 17  1  0  0  0  0
 17 18  1  0  0  0  0
 17 19  1  0  0  0  0
 17 20  1  0  0  0  0
 20 21  1  0  0  0  0
 20 22  1  0  0  0  0
 20 23  1  0  0  0  0
 23 24  1  0  0  0  0
 23 25  1  0  0  0  0
 23 26  1  0  0  0  0
M  END
> <VM2 Rank>
180

> <Conf_Id>
561

> <Probability>
0.00

> <Sum Probability>
99.97

> <Delta G>
4.570

> <G>
52.831

> <E>
20.017

> <-TS>
32.814

> <U+W>
-1.445

> <U>
52.645

> <W>
-54.090

> <W(PB)>
-56.310

> <W(SA)>
2.220

> <Valence>
5.946

> <Coulomb>
45.853

> <VdW>
0.845

> <VdW6>
-8.494

> <VdW12>
9.339

> <Bond>
0.292

> <Angle>
1.530

> <Pdih>
4.124

> <Idih>
0.000

> <Tether>
0.000

$$$$
VeraChem MOL file


 26 25  0  0  0  0  0  0  0  0999 V2000     
   19.0192   19.4848   20.0013 C   0  0  0  0  0  0  0  0  0  0  0  0
   18.1479   19.9393   20.4906 H   0  0  0  0  0  0  0  0  0  0  0  0
   19.3604   20.1711   19.2154 H   0  0  0  0  0  0  0  0  0  0  0  0
   18.6936   18.5545   19.5179 H   0  0  0  0  0  0  0  0  0  0  0  0
   20.1488   19.2163   21.0181 C   0  0  0  0  0  0  0  0  0  0  0  0
   20.4740   20.1720   21.4504 H   0  0  0  0  0  0  0  0  0  0  0  0
   21.0168   18.7911   20.4952 H   0  0  0  0  0  0  0  0  0  0  0  0
   19.6906   18.2535   22.1383 C   0  0  0  0  0  0  0  0  0  0  0  0
   18.8454   18.6971   22.6790 H   0  0  0  0  0  0  0  0  0  0  0  0
   19.3068   17.3317   21.6796 H   0  0  0  0  0  0  0  0  0  0  0  0
   20.8238   17.8725   23.1264 C   0  0  0  0  0  0  0  0  0  0  0  0
   21.6177   17.3593   22.5663 H   0  0  0  0  0  0  0  0  0  0  0  0
   20.4515   17.1284   23.8411 H   0  0  0  0  0  0  0  0  0  0  0  0
   21.4600   19.0603   23.8969 C   0  0  0  0  0  0  0  0  0  0  0  0
   22.2330   18.6660   24.5709 H   0  0  0  0  0  0  0  0  0  0  0  0
   21.9963   19.7013   23.1847 H   0  0  0  0  0  0  0  0  0  0  0  0
   20.4843   19.9428   24.7204 C   0  0  0  0  0  0  0  0  0  0  0  0
   19.7213   20.3949   24.0741 H   0  0  0  0  0  0  0  0  0  0  0  0
   21.0608   20.7835   25.1286 H   0  0  0  0  0  0  0  0  0  0  0  0
   19.8194   19.2176   25.9089 C   0  0  0  0  0  0  0  0  0  0  0  0
   20.5570   18.5916   26.4181 H   0  0  0  0  0  0  0  0  0  0  0  0
   19.4561   19.9615   26.6230 H   0  0  0  0  0  0  0  0  0  0  0  0
   18.6348   18.3512   25.5307 N   0  3  0  0  0  0  0  0  0  0  0  0
   18.8962   17.6334   24.8488 H   0  0  0  0  0  0  0  0  0  0  0  0
   17.8781   18.9046   25.1164 H   0  0  0  0  0  0  0  0  0  0  0  0
   18.2411   17.8690   26.3461 H   0  0  0  0  0  0  0  0  0  0  0  0
  1  2  1  0  0  0  0
  1  3  1  0  0  0  0
  1  4  1  0  0  0  0
  1  5  1  0  0  0  0
  5  6  1  0  0  0  0
  5  7  1  0  0  0  0
  5  8  1  0  0  0  0
  8  9  1  0  0  0  0
  8 10  1  0  0  0  0
  8 11  1  0  0  0  0
 11 12  1  0  0  0  0
 11 13  1  0  0  0  0
 11 14  1  0  0  0  0
 14 15  1  0  0  0  0
 14 16  1  0  0  0  0
 14 17  1  0  0  0  0
 17 18  1  0  0  0  0
 17 19  1  0  0  0  0
 17 20  1  0  0  0  0
 20 21  1  0  0  0  0
 20 22  1  0  0  0  0
 20 23  1  0  0  0  0
 23 24  1  0  0  0  0
 23 25  1  0  0  0  0
 23 26  1  0  0  0  0
M  END
> <VM2 Rank>
181

> <Conf_Id>
275

> <Probability>
0.00

> <Sum Probability>
99.98

> <Delta G>
4.590

> <G>
52.851

> <E>
19.529

> <-TS>
33.322

> <U+W>
-1.933

> <U>
52.118

> <W>
-54.050

> <W(PB)>
-56.271

> <W(SA)>
2.220

> <Valence>
4.669

> <Coulomb>
47.148

> <VdW>
0.301

> <VdW6>
-9.413

> <VdW12>
9.714

> <Bond>
0.278

> <Angle>
1.801

> <Pdih>
2.590

> <Idih>
0.000

> <Tether>
0.000

$$$$
VeraChem MOL file


 26 25  0  0  0  0  0  0  0  0999 V2000     
   21.0099   20.2229   21.1870 C   0  0  0  0  0  0  0  0  0  0  0  0
   21.3603   20.1806   22.2246 H   0  0  0  0  0  0  0  0  0  0  0  0
   21.8189   20.6584   20.5863 H   0  0  0  0  0  0  0  0  0  0  0  0
   20.1490   20.9018   21.1336 H   0  0  0  0  0  0  0  0  0  0  0  0
   20.6455   18.8175   20.6615 C   0  0  0  0  0  0  0  0  0  0  0  0
   21.5020   18.1430   20.7995 H   0  0  0  0  0  0  0  0  0  0  0  0
   20.4799   18.8800   19.5769 H   0  0  0  0  0  0  0  0  0  0  0  0
   19.3839   18.1972   21.3146 C   0  0  0  0  0  0  0  0  0  0  0  0
   18.5023   18.8144   21.0935 H   0  0  0  0  0  0  0  0  0  0  0  0
   19.1994   17.2322   20.8225 H   0  0  0  0  0  0  0  0  0  0  0  0
   19.4977   17.9452   22.8408 C   0  0  0  0  0  0  0  0  0  0  0  0
   20.5437   17.7420   23.1054 H   0  0  0  0  0  0  0  0  0  0  0  0
   18.9399   17.0297   23.0819 H   0  0  0  0  0  0  0  0  0  0  0  0
   18.9216   19.0993   23.7013 C   0  0  0  0  0  0  0  0  0  0  0  0
   19.4525   20.0363   23.4992 H   0  0  0  0  0  0  0  0  0  0  0  0
   17.8779   19.2765   23.4077 H   0  0  0  0  0  0  0  0  0  0  0  0
   18.9560   18.7985   25.2208 C   0  0  0  0  0  0  0  0  0  0  0  0
   18.3426   17.9116   25.4281 H   0  0  0  0  0  0  0  0  0  0  0  0
   18.4872   19.6284   25.7659 H   0  0  0  0  0  0  0  0  0  0  0  0
   20.3726   18.5621   25.7827 C   0  0  0  0  0  0  0  0  0  0  0  0
   20.3051   18.3264   26.8483 H   0  0  0  0  0  0  0  0  0  0  0  0
   20.8348   17.7110   25.2762 H   0  0  0  0  0  0  0  0  0  0  0  0
   21.2938   19.7563   25.6324 N   0  3  0  0  0  0  0  0  0  0  0  0
   22.2242   19.5706   26.0227 H   0  0  0  0  0  0  0  0  0  0  0  0
   20.9259   20.5826   26.1150 H   0  0  0  0  0  0  0  0  0  0  0  0
   21.4233   20.0103   24.6486 H   0  0  0  0  0  0  0  0  0  0  0  0
  1  2  1  0  0  0  0
  1  3  1  0  0  0  0
  1  4  1  0  0  0  0
  1  5  1  0  0  0  0
  5  6  1  0  0  0  0
  5  7  1  0  0  0  0
  5  8  1  0  0  0  0
  8  9  1  0  0  0  0
  8 10  1  0  0  0  0
  8 11  1  0  0  0  0
 11 12  1  0  0  0  0
 11 13  1  0  0  0  0
 11 14  1  0  0  0  0
 14 15  1  0  0  0  0
 14 16  1  0  0  0  0
 14 17  1  0  0  0  0
 17 18  1  0  0  0  0
 17 19  1  0  0  0  0
 17 20  1  0  0  0  0
 20 21  1  0  0  0  0
 20 22  1  0  0  0  0
 20 23  1  0  0  0  0
 23 24  1  0  0  0  0
 23 25  1  0  0  0  0
 23 26  1  0  0  0  0
M  END
> <VM2 Rank>
182

> <Conf_Id>
1089

> <Probability>
0.00

> <Sum Probability>
99.98

> <Delta G>
4.776

> <G>
53.037

> <E>
20.122

> <-TS>
32.916

> <U+W>
-1.340

> <U>
52.694

> <W>
-54.034

> <W(PB)>
-56.244

> <W(SA)>
2.210

> <Valence>
5.523

> <Coulomb>
46.643

> <VdW>
0.528

> <VdW6>
-8.872

> <VdW12>
9.400

> <Bond>
0.267

> <Angle>
1.434

> <Pdih>
3.822

> <Idih>
0.000

> <Tether>
0.000

$$$$
VeraChem MOL file


 26 25  0  0  0  0  0  0  0  0999 V2000     
   18.5236   18.5825   21.1032 C   0  0  0  0  0  0  0  0  0  0  0  0
   18.3760   18.2124   22.1242 H   0  0  0  0  0  0  0  0  0  0  0  0
   18.2405   19.6425   21.0687 H   0  0  0  0  0  0  0  0  0  0  0  0
   17.8343   18.0294   20.4522 H   0  0  0  0  0  0  0  0  0  0  0  0
   19.9823   18.3794   20.6394 C   0  0  0  0  0  0  0  0  0  0  0  0
   20.0408   18.5890   19.5622 H   0  0  0  0  0  0  0  0  0  0  0  0
   20.2591   17.3225   20.7586 H   0  0  0  0  0  0  0  0  0  0  0  0
   21.0165   19.2739   21.3694 C   0  0  0  0  0  0  0  0  0  0  0  0
   21.9984   19.0782   20.9167 H   0  0  0  0  0  0  0  0  0  0  0  0
   20.8060   20.3336   21.1703 H   0  0  0  0  0  0  0  0  0  0  0  0
   21.1319   19.0237   22.8958 C   0  0  0  0  0  0  0  0  0  0  0  0
   22.1804   19.1684   23.1908 H   0  0  0  0  0  0  0  0  0  0  0  0
   20.8960   17.9746   23.1177 H   0  0  0  0  0  0  0  0  0  0  0  0
   20.2571   19.9810   23.7458 C   0  0  0  0  0  0  0  0  0  0  0  0
   20.5172   21.0187   23.4954 H   0  0  0  0  0  0  0  0  0  0  0  0
   19.1976   19.8681   23.4905 H   0  0  0  0  0  0  0  0  0  0  0  0
   20.4492   19.7850   25.2707 C   0  0  0  0  0  0  0  0  0  0  0  0
   19.8445   20.5255   25.8109 H   0  0  0  0  0  0  0  0  0  0  0  0
   21.4947   19.9939   25.5336 H   0  0  0  0  0  0  0  0  0  0  0  0
   20.0856   18.3732   25.7735 C   0  0  0  0  0  0  0  0  0  0  0  0
   20.7107   17.6293   25.2731 H   0  0  0  0  0  0  0  0  0  0  0  0
   20.2785   18.3103   26.8479 H   0  0  0  0  0  0  0  0  0  0  0  0
   18.6347   18.0002   25.5433 N   0  3  0  0  0  0  0  0  0  0  0  0
   18.3968   18.0108   24.5471 H   0  0  0  0  0  0  0  0  0  0  0  0
   17.9965   18.6484   26.0163 H   0  0  0  0  0  0  0  0  0  0  0  0
   18.4228   17.0604   25.8958 H   0  0  0  0  0  0  0  0  0  0  0  0
  1  2  1  0  0  0  0
  1  3  1  0  0  0  0
  1  4  1  0  0  0  0
  1  5  1  0  0  0  0
  5  6  1  0  0  0  0
  5  7  1  0  0  0  0
  5  8  1  0  0  0  0
  8  9  1  0  0  0  0
  8 10  1  0  0  0  0
  8 11  1  0  0  0  0
 11 12  1  0  0  0  0
 11 13  1  0  0  0  0
 11 14  1  0  0  0  0
 14 15  1  0  0  0  0
 14 16  1  0  0  0  0
 14 17  1  0  0  0  0
 17 18  1  0  0  0  0
 17 19  1  0  0  0  0
 17 20  1  0  0  0  0
 20 21  1  0  0  0  0
 20 22  1  0  0  0  0
 20 23  1  0  0  0  0
 23 24  1  0  0  0  0
 23 25  1  0  0  0  0
 23 26  1  0  0  0  0
M  END
> <VM2 Rank>
183

> <Conf_Id>
537

> <Probability>
0.00

> <Sum Probability>
99.98

> <Delta G>
4.798

> <G>
53.059

> <E>
20.143

> <-TS>
32.916

> <U+W>
-1.319

> <U>
52.694

> <W>
-54.013

> <W(PB)>
-56.216

> <W(SA)>
2.204

> <Valence>
5.523

> <Coulomb>
46.642

> <VdW>
0.528

> <VdW6>
-8.872

> <VdW12>
9.400

> <Bond>
0.267

> <Angle>
1.435

> <Pdih>
3.821

> <Idih>
0.000

> <Tether>
0.000

$$$$
VeraChem MOL file


 26 25  0  0  0  0  0  0  0  0999 V2000     
   20.3033   20.6306   21.5477 C   0  0  0  0  0  0  0  0  0  0  0  0
   20.5917   20.5663   22.6014 H   0  0  0  0  0  0  0  0  0  0  0  0
   20.9660   21.3635   21.0697 H   0  0  0  0  0  0  0  0  0  0  0  0
   19.2801   21.0248   21.4972 H   0  0  0  0  0  0  0  0  0  0  0  0
   20.4064   19.2642   20.8313 C   0  0  0  0  0  0  0  0  0  0  0  0
   21.4395   18.8915   20.8683 H   0  0  0  0  0  0  0  0  0  0  0  0
   20.1824   19.4258   19.7675 H   0  0  0  0  0  0  0  0  0  0  0  0
   19.4271   18.1933   21.3787 C   0  0  0  0  0  0  0  0  0  0  0  0
   18.4971   18.6632   21.7244 H   0  0  0  0  0  0  0  0  0  0  0  0
   19.1300   17.5520   20.5373 H   0  0  0  0  0  0  0  0  0  0  0  0
   20.0169   17.2635   22.4736 C   0  0  0  0  0  0  0  0  0  0  0  0
   20.8943   16.7453   22.0629 H   0  0  0  0  0  0  0  0  0  0  0  0
   19.2839   16.4752   22.6936 H   0  0  0  0  0  0  0  0  0  0  0  0
   20.4212   17.9464   23.8035 C   0  0  0  0  0  0  0  0  0  0  0  0
   20.8493   17.1818   24.4664 H   0  0  0  0  0  0  0  0  0  0  0  0
   21.2278   18.6657   23.6186 H   0  0  0  0  0  0  0  0  0  0  0  0
   19.2342   18.6258   24.5312 C   0  0  0  0  0  0  0  0  0  0  0  0
   18.4257   17.8949   24.6647 H   0  0  0  0  0  0  0  0  0  0  0  0
   18.8216   19.4397   23.9225 H   0  0  0  0  0  0  0  0  0  0  0  0
   19.6260   19.1774   25.9154 C   0  0  0  0  0  0  0  0  0  0  0  0
   18.7350   19.5645   26.4173 H   0  0  0  0  0  0  0  0  0  0  0  0
   20.0398   18.3723   26.5284 H   0  0  0  0  0  0  0  0  0  0  0  0
   20.6458   20.2979   25.8596 N   0  3  0  0  0  0  0  0  0  0  0  0
   20.8788   20.6455   26.7962 H   0  0  0  0  0  0  0  0  0  0  0  0
   20.3023   21.0988   25.3201 H   0  0  0  0  0  0  0  0  0  0  0  0
   21.5226   19.9912   25.4272 H   0  0  0  0  0  0  0  0  0  0  0  0
  1  2  1  0  0  0  0
  1  3  1  0  0  0  0
  1  4  1  0  0  0  0
  1  5  1  0  0  0  0
  5  6  1  0  0  0  0
  5  7  1  0  0  0  0
  5  8  1  0  0  0  0
  8  9  1  0  0  0  0
  8 10  1  0  0  0  0
  8 11  1  0  0  0  0
 11 12  1  0  0  0  0
 11 13  1  0  0  0  0
 11 14  1  0  0  0  0
 14 15  1  0  0  0  0
 14 16  1  0  0  0  0
 14 17  1  0  0  0  0
 17 18  1  0  0  0  0
 17 19  1  0  0  0  0
 17 20  1  0  0  0  0
 20 21  1  0  0  0  0
 20 22  1  0  0  0  0
 20 23  1  0  0  0  0
 23 24  1  0  0  0  0
 23 25  1  0  0  0  0
 23 26  1  0  0  0  0
M  END
> <VM2 Rank>
184

> <Conf_Id>
1220

> <Probability>
0.00

> <Sum Probability>
99.98

> <Delta G>
4.818

> <G>
53.079

> <E>
19.768

> <-TS>
33.311

> <U+W>
-1.694

> <U>
52.676

> <W>
-54.370

> <W(PB)>
-56.549

> <W(SA)>
2.179

> <Valence>
5.835

> <Coulomb>
46.484

> <VdW>
0.357

> <VdW6>
-9.272

> <VdW12>
9.629

> <Bond>
0.284

> <Angle>
1.857

> <Pdih>
3.695

> <Idih>
0.000

> <Tether>
0.000

$$$$
VeraChem MOL file


 26 25  0  0  0  0  0  0  0  0999 V2000     
   18.4088   19.3788   21.4844 C   0  0  0  0  0  0  0  0  0  0  0  0
   18.3061   19.0559   22.5250 H   0  0  0  0  0  0  0  0  0  0  0  0
   18.4491   20.4756   21.4696 H   0  0  0  0  0  0  0  0  0  0  0  0
   17.4982   19.0723   20.9537 H   0  0  0  0  0  0  0  0  0  0  0  0
   19.6577   18.7695   20.8062 C   0  0  0  0  0  0  0  0  0  0  0  0
   19.6462   19.0717   19.7496 H   0  0  0  0  0  0  0  0  0  0  0  0
   19.5945   17.6725   20.8064 H   0  0  0  0  0  0  0  0  0  0  0  0
   20.9996   19.2322   21.4313 C   0  0  0  0  0  0  0  0  0  0  0  0
   21.7444   19.2793   20.6248 H   0  0  0  0  0  0  0  0  0  0  0  0
   20.9155   20.2610   21.8052 H   0  0  0  0  0  0  0  0  0  0  0  0
   21.5726   18.2913   22.5256 C   0  0  0  0  0  0  0  0  0  0  0  0
   22.5737   18.6487   22.8036 H   0  0  0  0  0  0  0  0  0  0  0  0
   21.7247   17.2939   22.0907 H   0  0  0  0  0  0  0  0  0  0  0  0
   20.7249   18.1471   23.8137 C   0  0  0  0  0  0  0  0  0  0  0  0
   19.7569   17.6938   23.5695 H   0  0  0  0  0  0  0  0  0  0  0  0
   21.2295   17.4330   24.4792 H   0  0  0  0  0  0  0  0  0  0  0  0
   20.5309   19.4826   24.5745 C   0  0  0  0  0  0  0  0  0  0  0  0
   19.9724   20.2001   23.9609 H   0  0  0  0  0  0  0  0  0  0  0  0
   21.5127   19.9347   24.7677 H   0  0  0  0  0  0  0  0  0  0  0  0
   19.8063   19.2967   25.9214 C   0  0  0  0  0  0  0  0  0  0  0  0
   20.3561   18.5815   26.5391 H   0  0  0  0  0  0  0  0  0  0  0  0
   19.7755   20.2523   26.4519 H   0  0  0  0  0  0  0  0  0  0  0  0
   18.3802   18.8007   25.7839 N   0  3  0  0  0  0  0  0  0  0  0  0
   18.3394   17.8876   25.3211 H   0  0  0  0  0  0  0  0  0  0  0  0
   17.8034   19.4474   25.2364 H   0  0  0  0  0  0  0  0  0  0  0  0
   17.9259   18.6945   26.6976 H   0  0  0  0  0  0  0  0  0  0  0  0
  1  2  1  0  0  0  0
  1  3  1  0  0  0  0
  1  4  1  0  0  0  0
  1  5  1  0  0  0  0
  5  6  1  0  0  0  0
  5  7  1  0  0  0  0
  5  8  1  0  0  0  0
  8  9  1  0  0  0  0
  8 10  1  0  0  0  0
  8 11  1  0  0  0  0
 11 12  1  0  0  0  0
 11 13  1  0  0  0  0
 11 14  1  0  0  0  0
 14 15  1  0  0  0  0
 14 16  1  0  0  0  0
 14 17  1  0  0  0  0
 17 18  1  0  0  0  0
 17 19  1  0  0  0  0
 17 20  1  0  0  0  0
 20 21  1  0  0  0  0
 20 22  1  0  0  0  0
 20 23  1  0  0  0  0
 23 24  1  0  0  0  0
 23 25  1  0  0  0  0
 23 26  1  0  0  0  0
M  END
> <VM2 Rank>
185

> <Conf_Id>
78

> <Probability>
0.00

> <Sum Probability>
99.99

> <Delta G>
4.910

> <G>
53.171

> <E>
19.860

> <-TS>
33.311

> <U+W>
-1.602

> <U>
52.676

> <W>
-54.278

> <W(PB)>
-56.460

> <W(SA)>
2.182

> <Valence>
5.835

> <Coulomb>
46.484

> <VdW>
0.357

> <VdW6>
-9.272

> <VdW12>
9.629

> <Bond>
0.284

> <Angle>
1.857

> <Pdih>
3.694

> <Idih>
0.000

> <Tether>
0.000

$$$$
VeraChem MOL file


 26 25  0  0  0  0  0  0  0  0999 V2000     
   18.7572   17.9555   21.0511 C   0  0  0  0  0  0  0  0  0  0  0  0
   18.0782   18.4364   21.7650 H   0  0  0  0  0  0  0  0  0  0  0  0
   18.6389   18.4499   20.0782 H   0  0  0  0  0  0  0  0  0  0  0  0
   18.4303   16.9136   20.9384 H   0  0  0  0  0  0  0  0  0  0  0  0
   20.2269   18.0109   21.5273 C   0  0  0  0  0  0  0  0  0  0  0  0
   20.8365   17.4099   20.8382 H   0  0  0  0  0  0  0  0  0  0  0  0
   20.3153   17.5228   22.5038 H   0  0  0  0  0  0  0  0  0  0  0  0
   20.8122   19.4471   21.5664 C   0  0  0  0  0  0  0  0  0  0  0  0
   21.8942   19.3963   21.7494 H   0  0  0  0  0  0  0  0  0  0  0  0
   20.7056   19.8800   20.5622 H   0  0  0  0  0  0  0  0  0  0  0  0
   20.1614   20.4187   22.5897 C   0  0  0  0  0  0  0  0  0  0  0  0
   19.0842   20.2368   22.6805 H   0  0  0  0  0  0  0  0  0  0  0  0
   20.2432   21.4341   22.1778 H   0  0  0  0  0  0  0  0  0  0  0  0
   20.8302   20.4448   23.9909 C   0  0  0  0  0  0  0  0  0  0  0  0
   21.8841   20.7355   23.8811 H   0  0  0  0  0  0  0  0  0  0  0  0
   20.3613   21.2430   24.5829 H   0  0  0  0  0  0  0  0  0  0  0  0
   20.7558   19.1277   24.7992 C   0  0  0  0  0  0  0  0  0  0  0  0
   21.2183   19.2908   25.7816 H   0  0  0  0  0  0  0  0  0  0  0  0
   21.3558   18.3527   24.3074 H   0  0  0  0  0  0  0  0  0  0  0  0
   19.3107   18.6353   25.0022 C   0  0  0  0  0  0  0  0  0  0  0  0
   18.7297   19.4038   25.5190 H   0  0  0  0  0  0  0  0  0  0  0  0
   18.8453   18.4470   24.0314 H   0  0  0  0  0  0  0  0  0  0  0  0
   19.2265   17.3591   25.8141 N   0  3  0  0  0  0  0  0  0  0  0  0
   19.6226   17.4774   26.7523 H   0  0  0  0  0  0  0  0  0  0  0  0
   19.7327   16.5874   25.3680 H   0  0  0  0  0  0  0  0  0  0  0  0
   18.2564   17.0493   25.9371 H   0  0  0  0  0  0  0  0  0  0  0  0
  1  2  1  0  0  0  0
  1  3  1  0  0  0  0
  1  4  1  0  0  0  0
  1  5  1  0  0  0  0
  5  6  1  0  0  0  0
  5  7  1  0  0  0  0
  5  8  1  0  0  0  0
  8  9  1  0  0  0  0
  8 10  1  0  0  0  0
  8 11  1  0  0  0  0
 11 12  1  0  0  0  0
 11 13  1  0  0  0  0
 11 14  1  0  0  0  0
 14 15  1  0  0  0  0
 14 16  1  0  0  0  0
 14 17  1  0  0  0  0
 17 18  1  0  0  0  0
 17 19  1  0  0  0  0
 17 20  1  0  0  0  0
 20 21  1  0  0  0  0
 20 22  1  0  0  0  0
 20 23  1  0  0  0  0
 23 24  1  0  0  0  0
 23 25  1  0  0  0  0
 23 26  1  0  0  0  0
M  END
> <VM2 Rank>
186

> <Conf_Id>
242

> <Probability>
0.00

> <Sum Probability>
99.99

> <Delta G>
4.946

> <G>
53.207

> <E>
19.840

> <-TS>
33.368

> <U+W>
-1.622

> <U>
52.777

> <W>
-54.399

> <W(PB)>
-56.621

> <W(SA)>
2.222

> <Valence>
6.161

> <Coulomb>
46.342

> <VdW>
0.273

> <VdW6>
-9.540

> <VdW12>
9.814

> <Bond>
0.307

> <Angle>
2.227

> <Pdih>
3.628

> <Idih>
0.000

> <Tether>
0.000

$$$$
VeraChem MOL file


 26 25  0  0  0  0  0  0  0  0999 V2000     
   18.9523   19.6107   20.6351 C   0  0  0  0  0  0  0  0  0  0  0  0
   18.4836   19.4970   19.6491 H   0  0  0  0  0  0  0  0  0  0  0  0
   18.2748   19.1668   21.3716 H   0  0  0  0  0  0  0  0  0  0  0  0
   19.0291   20.6854   20.8446 H   0  0  0  0  0  0  0  0  0  0  0  0
   20.3463   18.9420   20.6478 C   0  0  0  0  0  0  0  0  0  0  0  0
   20.9299   19.3703   19.8208 H   0  0  0  0  0  0  0  0  0  0  0  0
   20.2556   17.8692   20.4281 H   0  0  0  0  0  0  0  0  0  0  0  0
   21.1383   19.1576   21.9638 C   0  0  0  0  0  0  0  0  0  0  0  0
   22.2063   19.1841   21.7070 H   0  0  0  0  0  0  0  0  0  0  0  0
   20.9196   20.1463   22.3878 H   0  0  0  0  0  0  0  0  0  0  0  0
   20.9556   18.0442   23.0305 C   0  0  0  0  0  0  0  0  0  0  0  0
   21.6873   18.2078   23.8328 H   0  0  0  0  0  0  0  0  0  0  0  0
   21.2265   17.0779   22.5836 H   0  0  0  0  0  0  0  0  0  0  0  0
   19.5416   17.9223   23.6557 C   0  0  0  0  0  0  0  0  0  0  0  0
   18.8261   17.6094   22.8854 H   0  0  0  0  0  0  0  0  0  0  0  0
   19.5521   17.1015   24.3851 H   0  0  0  0  0  0  0  0  0  0  0  0
   19.0255   19.2098   24.3511 C   0  0  0  0  0  0  0  0  0  0  0  0
   18.0349   19.0150   24.7828 H   0  0  0  0  0  0  0  0  0  0  0  0
   18.8780   20.0012   23.6060 H   0  0  0  0  0  0  0  0  0  0  0  0
   19.9615   19.7414   25.4548 C   0  0  0  0  0  0  0  0  0  0  0  0
   20.9421   19.9684   25.0286 H   0  0  0  0  0  0  0  0  0  0  0  0
   19.5481   20.6654   25.8680 H   0  0  0  0  0  0  0  0  0  0  0  0
   20.1600   18.7709   26.6022 N   0  3  0  0  0  0  0  0  0  0  0  0
   20.5723   17.8890   26.2829 H   0  0  0  0  0  0  0  0  0  0  0  0
   19.2738   18.5419   27.0638 H   0  0  0  0  0  0  0  0  0  0  0  0
   20.7833   19.1531   27.3216 H   0  0  0  0  0  0  0  0  0  0  0  0
  1  2  1  0  0  0  0
  1  3  1  0  0  0  0
  1  4  1  0  0  0  0
  1  5  1  0  0  0  0
  5  6  1  0  0  0  0
  5  7  1  0  0  0  0
  5  8  1  0  0  0  0
  8  9  1  0  0  0  0
  8 10  1  0  0  0  0
  8 11  1  0  0  0  0
 11 12  1  0  0  0  0
 11 13  1  0  0  0  0
 11 14  1  0  0  0  0
 14 15  1  0  0  0  0
 14 16  1  0  0  0  0
 14 17  1  0  0  0  0
 17 18  1  0  0  0  0
 17 19  1  0  0  0  0
 17 20  1  0  0  0  0
 20 21  1  0  0  0  0
 20 22  1  0  0  0  0
 20 23  1  0  0  0  0
 23 24  1  0  0  0  0
 23 25  1  0  0  0  0
 23 26  1  0  0  0  0
M  END
> <VM2 Rank>
187

> <Conf_Id>
278

> <Probability>
0.00

> <Sum Probability>
99.99

> <Delta G>
4.949

> <G>
53.210

> <E>
19.693

> <-TS>
33.517

> <U+W>
-1.769

> <U>
52.331

> <W>
-54.099

> <W(PB)>
-56.293

> <W(SA)>
2.194

> <Valence>
6.095

> <Coulomb>
45.826

> <VdW>
0.409

> <VdW6>
-9.964

> <VdW12>
10.373

> <Bond>
0.316

> <Angle>
2.141

> <Pdih>
3.638

> <Idih>
0.000

> <Tether>
0.000

$$$$
VeraChem MOL file


 26 25  0  0  0  0  0  0  0  0999 V2000     
   20.6349   19.0495   19.8546 C   0  0  0  0  0  0  0  0  0  0  0  0
   21.0464   20.0178   20.1651 H   0  0  0  0  0  0  0  0  0  0  0  0
   21.2753   18.6619   19.0518 H   0  0  0  0  0  0  0  0  0  0  0  0
   19.6351   19.2187   19.4341 H   0  0  0  0  0  0  0  0  0  0  0  0
   20.5807   18.0504   21.0326 C   0  0  0  0  0  0  0  0  0  0  0  0
   21.5869   17.9243   21.4558 H   0  0  0  0  0  0  0  0  0  0  0  0
   20.2848   17.0651   20.6458 H   0  0  0  0  0  0  0  0  0  0  0  0
   19.5889   18.4633   22.1469 C   0  0  0  0  0  0  0  0  0  0  0  0
   18.5826   18.5711   21.7192 H   0  0  0  0  0  0  0  0  0  0  0  0
   19.5264   17.6402   22.8691 H   0  0  0  0  0  0  0  0  0  0  0  0
   19.9868   19.7748   22.8713 C   0  0  0  0  0  0  0  0  0  0  0  0
   19.9855   20.5986   22.1457 H   0  0  0  0  0  0  0  0  0  0  0  0
   21.0168   19.7111   23.2424 H   0  0  0  0  0  0  0  0  0  0  0  0
   19.0269   20.1639   24.0247 C   0  0  0  0  0  0  0  0  0  0  0  0
   19.3482   21.1320   24.4334 H   0  0  0  0  0  0  0  0  0  0  0  0
   18.0257   20.3357   23.6060 H   0  0  0  0  0  0  0  0  0  0  0  0
   18.9062   19.1488   25.1932 C   0  0  0  0  0  0  0  0  0  0  0  0
   18.4675   18.2036   24.8495 H   0  0  0  0  0  0  0  0  0  0  0  0
   18.1894   19.5590   25.9170 H   0  0  0  0  0  0  0  0  0  0  0  0
   20.2268   18.8819   25.9449 C   0  0  0  0  0  0  0  0  0  0  0  0
   20.7813   19.8170   26.0604 H   0  0  0  0  0  0  0  0  0  0  0  0
   19.9995   18.4968   26.9426 H   0  0  0  0  0  0  0  0  0  0  0  0
   21.1298   17.8665   25.2729 N   0  3  0  0  0  0  0  0  0  0  0  0
   21.3637   18.1471   24.3159 H   0  0  0  0  0  0  0  0  0  0  0  0
   20.6872   16.9434   25.2197 H   0  0  0  0  0  0  0  0  0  0  0  0
   22.0123   17.7462   25.7822 H   0  0  0  0  0  0  0  0  0  0  0  0
  1  2  1  0  0  0  0
  1  3  1  0  0  0  0
  1  4  1  0  0  0  0
  1  5  1  0  0  0  0
  5  6  1  0  0  0  0
  5  7  1  0  0  0  0
  5  8  1  0  0  0  0
  8  9  1  0  0  0  0
  8 10  1  0  0  0  0
  8 11  1  0  0  0  0
 11 12  1  0  0  0  0
 11 13  1  0  0  0  0
 11 14  1  0  0  0  0
 14 15  1  0  0  0  0
 14 16  1  0  0  0  0
 14 17  1  0  0  0  0
 17 18  1  0  0  0  0
 17 19  1  0  0  0  0
 17 20  1  0  0  0  0
 20 21  1  0  0  0  0
 20 22  1  0  0  0  0
 20 23  1  0  0  0  0
 23 24  1  0  0  0  0
 23 25  1  0  0  0  0
 23 26  1  0  0  0  0
M  END
> <VM2 Rank>
188

> <Conf_Id>
831

> <Probability>
0.00

> <Sum Probability>
99.99

> <Delta G>
5.168

> <G>
53.429

> <E>
20.199

> <-TS>
33.230

> <U+W>
-1.263

> <U>
52.436

> <W>
-53.699

> <W(PB)>
-55.916

> <W(SA)>
2.217

> <Valence>
4.797

> <Coulomb>
47.143

> <VdW>
0.497

> <VdW6>
-9.252

> <VdW12>
9.749

> <Bond>
0.276

> <Angle>
1.763

> <Pdih>
2.758

> <Idih>
0.000

> <Tether>
0.000

$$$$
VeraChem MOL file


 26 25  0  0  0  0  0  0  0  0999 V2000     
   19.8794   19.1381   19.9786 C   0  0  0  0  0  0  0  0  0  0  0  0
   19.3575   20.0393   20.3236 H   0  0  0  0  0  0  0  0  0  0  0  0
   20.8538   19.4388   19.5725 H   0  0  0  0  0  0  0  0  0  0  0  0
   19.2908   18.7094   19.1572 H   0  0  0  0  0  0  0  0  0  0  0  0
   20.0469   18.1090   21.1192 C   0  0  0  0  0  0  0  0  0  0  0  0
   20.4679   17.1840   20.7012 H   0  0  0  0  0  0  0  0  0  0  0  0
   19.0614   17.8368   21.5201 H   0  0  0  0  0  0  0  0  0  0  0  0
   20.9724   18.6005   22.2609 C   0  0  0  0  0  0  0  0  0  0  0  0
   21.0893   17.7902   22.9913 H   0  0  0  0  0  0  0  0  0  0  0  0
   21.9765   18.7757   21.8507 H   0  0  0  0  0  0  0  0  0  0  0  0
   20.4990   19.8918   22.9819 C   0  0  0  0  0  0  0  0  0  0  0  0
   20.5229   20.7274   22.2699 H   0  0  0  0  0  0  0  0  0  0  0  0
   21.2266   20.1640   23.7560 H   0  0  0  0  0  0  0  0  0  0  0  0
   19.0800   19.8178   23.6058 C   0  0  0  0  0  0  0  0  0  0  0  0
   18.8584   20.7799   24.0879 H   0  0  0  0  0  0  0  0  0  0  0  0
   18.3415   19.7200   22.7990 H   0  0  0  0  0  0  0  0  0  0  0  0
   18.8444   18.6789   24.6335 C   0  0  0  0  0  0  0  0  0  0  0  0
   19.0171   17.6956   24.1781 H   0  0  0  0  0  0  0  0  0  0  0  0
   17.7816   18.6945   24.9088 H   0  0  0  0  0  0  0  0  0  0  0  0
   19.6614   18.8173   25.9350 C   0  0  0  0  0  0  0  0  0  0  0  0
   19.6637   19.8612   26.2597 H   0  0  0  0  0  0  0  0  0  0  0  0
   19.1877   18.2201   26.7188 H   0  0  0  0  0  0  0  0  0  0  0  0
   21.0975   18.3457   25.8261 N   0  3  0  0  0  0  0  0  0  0  0  0
   21.1520   17.3484   25.5956 H   0  0  0  0  0  0  0  0  0  0  0  0
   21.6086   18.4779   26.7057 H   0  0  0  0  0  0  0  0  0  0  0  0
   21.6067   18.8550   25.0983 H   0  0  0  0  0  0  0  0  0  0  0  0
  1  2  1  0  0  0  0
  1  3  1  0  0  0  0
  1  4  1  0  0  0  0
  1  5  1  0  0  0  0
  5  6  1  0  0  0  0
  5  7  1  0  0  0  0
  5  8  1  0  0  0  0
  8  9  1  0  0  0  0
  8 10  1  0  0  0  0
  8 11  1  0  0  0  0
 11 12  1  0  0  0  0
 11 13  1  0  0  0  0
 11 14  1  0  0  0  0
 14 15  1  0  0  0  0
 14 16  1  0  0  0  0
 14 17  1  0  0  0  0
 17 18  1  0  0  0  0
 17 19  1  0  0  0  0
 17 20  1  0  0  0  0
 20 21  1  0  0  0  0
 20 22  1  0  0  0  0
 20 23  1  0  0  0  0
 23 24  1  0  0  0  0
 23 25  1  0  0  0  0
 23 26  1  0  0  0  0
M  END
> <VM2 Rank>
189

> <Conf_Id>
253

> <Probability>
0.00

> <Sum Probability>
99.99

> <Delta G>
5.213

> <G>
53.474

> <E>
19.848

> <-TS>
33.626

> <U+W>
-1.614

> <U>
52.543

> <W>
-54.157

> <W(PB)>
-56.334

> <W(SA)>
2.177

> <Valence>
5.103

> <Coulomb>
47.136

> <VdW>
0.304

> <VdW6>
-10.241

> <VdW12>
10.545

> <Bond>
0.320

> <Angle>
2.105

> <Pdih>
2.678

> <Idih>
0.000

> <Tether>
0.000

$$$$
VeraChem MOL file


 26 25  0  0  0  0  0  0  0  0999 V2000     
   19.8096   18.5059   19.8271 C   0  0  0  0  0  0  0  0  0  0  0  0
   19.9507   17.7894   19.0075 H   0  0  0  0  0  0  0  0  0  0  0  0
   18.7442   18.5012   20.0883 H   0  0  0  0  0  0  0  0  0  0  0  0
   20.0673   19.5036   19.4486 H   0  0  0  0  0  0  0  0  0  0  0  0
   20.6935   18.1247   21.0363 C   0  0  0  0  0  0  0  0  0  0  0  0
   21.7325   18.0189   20.6940 H   0  0  0  0  0  0  0  0  0  0  0  0
   20.3936   17.1381   21.4158 H   0  0  0  0  0  0  0  0  0  0  0  0
   20.6531   19.1643   22.1824 C   0  0  0  0  0  0  0  0  0  0  0  0
   21.3997   18.8741   22.9316 H   0  0  0  0  0  0  0  0  0  0  0  0
   20.9702   20.1438   21.7990 H   0  0  0  0  0  0  0  0  0  0  0  0
   19.2587   19.2952   22.8469 C   0  0  0  0  0  0  0  0  0  0  0  0
   18.8944   18.3130   23.1715 H   0  0  0  0  0  0  0  0  0  0  0  0
   18.5366   19.6442   22.0973 H   0  0  0  0  0  0  0  0  0  0  0  0
   19.2257   20.2949   24.0313 C   0  0  0  0  0  0  0  0  0  0  0  0
   19.4816   21.2948   23.6546 H   0  0  0  0  0  0  0  0  0  0  0  0
   18.1915   20.3700   24.3948 H   0  0  0  0  0  0  0  0  0  0  0  0
   20.1508   19.9686   25.2348 C   0  0  0  0  0  0  0  0  0  0  0  0
   20.0228   20.7666   25.9781 H   0  0  0  0  0  0  0  0  0  0  0  0
   21.2073   20.0082   24.9409 H   0  0  0  0  0  0  0  0  0  0  0  0
   19.8409   18.6277   25.9320 C   0  0  0  0  0  0  0  0  0  0  0  0
   20.2375   18.6536   26.9506 H   0  0  0  0  0  0  0  0  0  0  0  0
   18.7587   18.4848   25.9930 H   0  0  0  0  0  0  0  0  0  0  0  0
   20.4487   17.4178   25.2502 N   0  3  0  0  0  0  0  0  0  0  0  0
   20.1880   16.5446   25.7214 H   0  0  0  0  0  0  0  0  0  0  0  0
   21.4729   17.4609   25.2459 H   0  0  0  0  0  0  0  0  0  0  0  0
   20.1434   17.3434   24.2752 H   0  0  0  0  0  0  0  0  0  0  0  0
  1  2  1  0  0  0  0
  1  3  1  0  0  0  0
  1  4  1  0  0  0  0
  1  5  1  0  0  0  0
  5  6  1  0  0  0  0
  5  7  1  0  0  0  0
  5  8  1  0  0  0  0
  8  9  1  0  0  0  0
  8 10  1  0  0  0  0
  8 11  1  0  0  0  0
 11 12  1  0  0  0  0
 11 13  1  0  0  0  0
 11 14  1  0  0  0  0
 14 15  1  0  0  0  0
 14 16  1  0  0  0  0
 14 17  1  0  0  0  0
 17 18  1  0  0  0  0
 17 19  1  0  0  0  0
 17 20  1  0  0  0  0
 20 21  1  0  0  0  0
 20 22  1  0  0  0  0
 20 23  1  0  0  0  0
 23 24  1  0  0  0  0
 23 25  1  0  0  0  0
 23 26  1  0  0  0  0
M  END
> <VM2 Rank>
190

> <Conf_Id>
1602

> <Probability>
0.00

> <Sum Probability>
99.99

> <Delta G>
5.220

> <G>
53.481

> <E>
20.251

> <-TS>
33.230

> <U+W>
-1.211

> <U>
52.436

> <W>
-53.647

> <W(PB)>
-55.880

> <W(SA)>
2.233

> <Valence>
4.797

> <Coulomb>
47.142

> <VdW>
0.497

> <VdW6>
-9.252

> <VdW12>
9.749

> <Bond>
0.276

> <Angle>
1.763

> <Pdih>
2.758

> <Idih>
0.000

> <Tether>
0.000

$$$$
VeraChem MOL file


 26 25  0  0  0  0  0  0  0  0999 V2000     
   19.6403   20.4647   21.1566 C   0  0  0  0  0  0  0  0  0  0  0  0
   20.1510   21.3572   20.7729 H   0  0  0  0  0  0  0  0  0  0  0  0
   18.6868   20.3675   20.6216 H   0  0  0  0  0  0  0  0  0  0  0  0
   19.4206   20.6388   22.2164 H   0  0  0  0  0  0  0  0  0  0  0  0
   20.5185   19.2090   20.9537 C   0  0  0  0  0  0  0  0  0  0  0  0
   21.4736   19.3220   21.4816 H   0  0  0  0  0  0  0  0  0  0  0  0
   20.7774   19.1324   19.8885 H   0  0  0  0  0  0  0  0  0  0  0  0
   19.8214   17.8950   21.3828 C   0  0  0  0  0  0  0  0  0  0  0  0
   18.9278   17.7556   20.7590 H   0  0  0  0  0  0  0  0  0  0  0  0
   20.4829   17.0507   21.1450 H   0  0  0  0  0  0  0  0  0  0  0  0
   19.3991   17.7982   22.8738 C   0  0  0  0  0  0  0  0  0  0  0  0
   18.8599   16.8482   22.9916 H   0  0  0  0  0  0  0  0  0  0  0  0
   18.6629   18.5738   23.1161 H   0  0  0  0  0  0  0  0  0  0  0  0
   20.5757   17.7968   23.8890 C   0  0  0  0  0  0  0  0  0  0  0  0
   20.3084   17.1440   24.7306 H   0  0  0  0  0  0  0  0  0  0  0  0
   21.4561   17.3273   23.4295 H   0  0  0  0  0  0  0  0  0  0  0  0
   20.9701   19.1873   24.4563 C   0  0  0  0  0  0  0  0  0  0  0  0
   21.3232   19.8405   23.6513 H   0  0  0  0  0  0  0  0  0  0  0  0
   21.8241   19.0646   25.1355 H   0  0  0  0  0  0  0  0  0  0  0  0
   19.8355   19.9077   25.2137 C   0  0  0  0  0  0  0  0  0  0  0  0
   20.1965   20.8767   25.5688 H   0  0  0  0  0  0  0  0  0  0  0  0
   18.9938   20.0871   24.5406 H   0  0  0  0  0  0  0  0  0  0  0  0
   19.3203   19.1403   26.4150 N   0  3  0  0  0  0  0  0  0  0  0  0
   20.0620   18.9636   27.1002 H   0  0  0  0  0  0  0  0  0  0  0  0
   18.9344   18.2306   26.1440 H   0  0  0  0  0  0  0  0  0  0  0  0
   18.5761   19.6504   26.9030 H   0  0  0  0  0  0  0  0  0  0  0  0
  1  2  1  0  0  0  0
  1  3  1  0  0  0  0
  1  4  1  0  0  0  0
  1  5  1  0  0  0  0
  5  6  1  0  0  0  0
  5  7  1  0  0  0  0
  5  8  1  0  0  0  0
  8  9  1  0  0  0  0
  8 10  1  0  0  0  0
  8 11  1  0  0  0  0
 11 12  1  0  0  0  0
 11 13  1  0  0  0  0
 11 14  1  0  0  0  0
 14 15  1  0  0  0  0
 14 16  1  0  0  0  0
 14 17  1  0  0  0  0
 17 18  1  0  0  0  0
 17 19  1  0  0  0  0
 17 20  1  0  0  0  0
 20 21  1  0  0  0  0
 20 22  1  0  0  0  0
 20 23  1  0  0  0  0
 23 24  1  0  0  0  0
 23 25  1  0  0  0  0
 23 26  1  0  0  0  0
M  END
> <VM2 Rank>
191

> <Conf_Id>
1101

> <Probability>
0.00

> <Sum Probability>
99.99

> <Delta G>
5.282

> <G>
53.543

> <E>
19.971

> <-TS>
33.573

> <U+W>
-1.491

> <U>
52.749

> <W>
-54.240

> <W(PB)>
-56.442

> <W(SA)>
2.202

> <Valence>
6.294

> <Coulomb>
46.014

> <VdW>
0.441

> <VdW6>
-9.947

> <VdW12>
10.387

> <Bond>
0.331

> <Angle>
2.251

> <Pdih>
3.712

> <Idih>
0.000

> <Tether>
0.000

$$$$
VeraChem MOL file


 26 25  0  0  0  0  0  0  0  0999 V2000     
   20.3749   20.5089   20.4734 C   0  0  0  0  0  0  0  0  0  0  0  0
   19.5890   20.3718   19.7192 H   0  0  0  0  0  0  0  0  0  0  0  0
   20.0867   21.3496   21.1178 H   0  0  0  0  0  0  0  0  0  0  0  0
   21.2987   20.7869   19.9495 H   0  0  0  0  0  0  0  0  0  0  0  0
   20.5828   19.2214   21.2986 C   0  0  0  0  0  0  0  0  0  0  0  0
   21.4053   19.3834   22.0056 H   0  0  0  0  0  0  0  0  0  0  0  0
   20.8977   18.4081   20.6297 H   0  0  0  0  0  0  0  0  0  0  0  0
   19.2909   18.8097   22.0445 C   0  0  0  0  0  0  0  0  0  0  0  0
   18.9653   19.6211   22.7034 H   0  0  0  0  0  0  0  0  0  0  0  0
   18.4867   18.6923   21.3050 H   0  0  0  0  0  0  0  0  0  0  0  0
   19.4176   17.4759   22.8278 C   0  0  0  0  0  0  0  0  0  0  0  0
   19.7123   16.6940   22.1142 H   0  0  0  0  0  0  0  0  0  0  0  0
   18.4270   17.1765   23.1966 H   0  0  0  0  0  0  0  0  0  0  0  0
   20.4271   17.4627   24.0092 C   0  0  0  0  0  0  0  0  0  0  0  0
   20.7180   16.4170   24.1801 H   0  0  0  0  0  0  0  0  0  0  0  0
   21.3591   17.9738   23.7415 H   0  0  0  0  0  0  0  0  0  0  0  0
   19.8762   18.0037   25.3561 C   0  0  0  0  0  0  0  0  0  0  0  0
   20.6293   17.8350   26.1373 H   0  0  0  0  0  0  0  0  0  0  0  0
   18.9992   17.4129   25.6519 H   0  0  0  0  0  0  0  0  0  0  0  0
   19.4902   19.4953   25.3657 C   0  0  0  0  0  0  0  0  0  0  0  0
   18.6505   19.6649   24.6885 H   0  0  0  0  0  0  0  0  0  0  0  0
   19.1697   19.7778   26.3722 H   0  0  0  0  0  0  0  0  0  0  0  0
   20.6213   20.4216   24.9656 N   0  3  0  0  0  0  0  0  0  0  0  0
   20.9399   20.2289   24.0111 H   0  0  0  0  0  0  0  0  0  0  0  0
   21.4311   20.3208   25.5863 H   0  0  0  0  0  0  0  0  0  0  0  0
   20.3369   21.4066   25.0001 H   0  0  0  0  0  0  0  0  0  0  0  0
  1  2  1  0  0  0  0
  1  3  1  0  0  0  0
  1  4  1  0  0  0  0
  1  5  1  0  0  0  0
  5  6  1  0  0  0  0
  5  7  1  0  0  0  0
  5  8  1  0  0  0  0
  8  9  1  0  0  0  0
  8 10  1  0  0  0  0
  8 11  1  0  0  0  0
 11 12  1  0  0  0  0
 11 13  1  0  0  0  0
 11 14  1  0  0  0  0
 14 15  1  0  0  0  0
 14 16  1  0  0  0  0
 14 17  1  0  0  0  0
 17 18  1  0  0  0  0
 17 19  1  0  0  0  0
 17 20  1  0  0  0  0
 20 21  1  0  0  0  0
 20 22  1  0  0  0  0
 20 23  1  0  0  0  0
 23 24  1  0  0  0  0
 23 25  1  0  0  0  0
 23 26  1  0  0  0  0
M  END
> <VM2 Rank>
192

> <Conf_Id>
258

> <Probability>
0.00

> <Sum Probability>
100.00

> <Delta G>
5.670

> <G>
53.931

> <E>
20.677

> <-TS>
33.254

> <U+W>
-0.785

> <U>
52.899

> <W>
-53.684

> <W(PB)>
-55.876

> <W(SA)>
2.192

> <Valence>
5.554

> <Coulomb>
47.030

> <VdW>
0.315

> <VdW6>
-9.412

> <VdW12>
9.727

> <Bond>
0.306

> <Angle>
2.197

> <Pdih>
3.051

> <Idih>
0.000

> <Tether>
0.000

$$$$
VeraChem MOL file


 26 25  0  0  0  0  0  0  0  0999 V2000     
   18.5430   19.2994   20.4119 C   0  0  0  0  0  0  0  0  0  0  0  0
   17.9500   18.5760   19.8373 H   0  0  0  0  0  0  0  0  0  0  0  0
   17.8533   19.8751   21.0428 H   0  0  0  0  0  0  0  0  0  0  0  0
   19.0121   19.9907   19.6997 H   0  0  0  0  0  0  0  0  0  0  0  0
   19.6061   18.5766   21.2658 C   0  0  0  0  0  0  0  0  0  0  0  0
   20.2612   17.9879   20.6085 H   0  0  0  0  0  0  0  0  0  0  0  0
   19.1020   17.8628   21.9285 H   0  0  0  0  0  0  0  0  0  0  0  0
   20.4558   19.5788   22.0835 C   0  0  0  0  0  0  0  0  0  0  0  0
   20.9130   20.2944   21.3862 H   0  0  0  0  0  0  0  0  0  0  0  0
   19.8069   20.1768   22.7316 H   0  0  0  0  0  0  0  0  0  0  0  0
   21.5953   18.9137   22.9006 C   0  0  0  0  0  0  0  0  0  0  0  0
   22.2412   19.6949   23.3243 H   0  0  0  0  0  0  0  0  0  0  0  0
   22.2315   18.3574   22.1985 H   0  0  0  0  0  0  0  0  0  0  0  0
   21.1568   17.9445   24.0335 C   0  0  0  0  0  0  0  0  0  0  0  0
   20.3345   17.2974   23.7072 H   0  0  0  0  0  0  0  0  0  0  0  0
   21.9958   17.2606   24.2227 H   0  0  0  0  0  0  0  0  0  0  0  0
   20.8131   18.6220   25.3875 C   0  0  0  0  0  0  0  0  0  0  0  0
   21.6858   19.1863   25.7417 H   0  0  0  0  0  0  0  0  0  0  0  0
   20.6365   17.8396   26.1375 H   0  0  0  0  0  0  0  0  0  0  0  0
   19.5934   19.5633   25.3693 C   0  0  0  0  0  0  0  0  0  0  0  0
   19.4126   19.9380   26.3804 H   0  0  0  0  0  0  0  0  0  0  0  0
   19.7981   20.4224   24.7270 H   0  0  0  0  0  0  0  0  0  0  0  0
   18.3176   18.9008   24.8889 N   0  3  0  0  0  0  0  0  0  0  0  0
   18.0639   18.0981   25.4741 H   0  0  0  0  0  0  0  0  0  0  0  0
   18.4141   18.5614   23.9270 H   0  0  0  0  0  0  0  0  0  0  0  0
   17.5224   19.5486   24.9062 H   0  0  0  0  0  0  0  0  0  0  0  0
  1  2  1  0  0  0  0
  1  3  1  0  0  0  0
  1  4  1  0  0  0  0
  1  5  1  0  0  0  0
  5  6  1  0  0  0  0
  5  7  1  0  0  0  0
  5  8  1  0  0  0  0
  8  9  1  0  0  0  0
  8 10  1  0  0  0  0
  8 11  1  0  0  0  0
 11 12  1  0  0  0  0
 11 13  1  0  0  0  0
 11 14  1  0  0  0  0
 14 15  1  0  0  0  0
 14 16  1  0  0  0  0
 14 17  1  0  0  0  0
 17 18  1  0  0  0  0
 17 19  1  0  0  0  0
 17 20  1  0  0  0  0
 20 21  1  0  0  0  0
 20 22  1  0  0  0  0
 20 23  1  0  0  0  0
 23 24  1  0  0  0  0
 23 25  1  0  0  0  0
 23 26  1  0  0  0  0
M  END
> <VM2 Rank>
193

> <Conf_Id>
855

> <Probability>
0.00

> <Sum Probability>
100.00

> <Delta G>
5.675

> <G>
53.936

> <E>
20.682

> <-TS>
33.254

> <U+W>
-0.780

> <U>
52.899

> <W>
-53.679

> <W(PB)>
-55.863

> <W(SA)>
2.184

> <Valence>
5.554

> <Coulomb>
47.030

> <VdW>
0.315

> <VdW6>
-9.412

> <VdW12>
9.727

> <Bond>
0.306

> <Angle>
2.197

> <Pdih>
3.052

> <Idih>
0.000

> <Tether>
0.000

$$$$
VeraChem MOL file


 26 25  0  0  0  0  0  0  0  0999 V2000     
   18.3616   18.3860   20.8125 C   0  0  0  0  0  0  0  0  0  0  0  0
   18.4540   18.9190   19.8572 H   0  0  0  0  0  0  0  0  0  0  0  0
   17.9471   17.3911   20.6045 H   0  0  0  0  0  0  0  0  0  0  0  0
   17.6400   18.9276   21.4378 H   0  0  0  0  0  0  0  0  0  0  0  0
   19.7294   18.2700   21.5174 C   0  0  0  0  0  0  0  0  0  0  0  0
   20.4162   17.6919   20.8836 H   0  0  0  0  0  0  0  0  0  0  0  0
   19.6108   17.6967   22.4444 H   0  0  0  0  0  0  0  0  0  0  0  0
   20.3432   19.6614   21.8057 C   0  0  0  0  0  0  0  0  0  0  0  0
   20.5364   20.1520   20.8416 H   0  0  0  0  0  0  0  0  0  0  0  0
   19.6249   20.3064   22.3289 H   0  0  0  0  0  0  0  0  0  0  0  0
   21.6743   19.5907   22.5968 C   0  0  0  0  0  0  0  0  0  0  0  0
   22.3380   20.3766   22.2103 H   0  0  0  0  0  0  0  0  0  0  0  0
   22.1908   18.6439   22.3873 H   0  0  0  0  0  0  0  0  0  0  0  0
   21.5541   19.8024   24.1306 C   0  0  0  0  0  0  0  0  0  0  0  0
   22.5734   19.8136   24.5408 H   0  0  0  0  0  0  0  0  0  0  0  0
   21.1412   20.7988   24.3408 H   0  0  0  0  0  0  0  0  0  0  0  0
   20.7458   18.7253   24.8958 C   0  0  0  0  0  0  0  0  0  0  0  0
   21.0971   18.6998   25.9359 H   0  0  0  0  0  0  0  0  0  0  0  0
   20.9508   17.7313   24.4772 H   0  0  0  0  0  0  0  0  0  0  0  0
   19.2305   19.0057   24.9120 C   0  0  0  0  0  0  0  0  0  0  0  0
   19.0425   19.9742   25.3831 H   0  0  0  0  0  0  0  0  0  0  0  0
   18.8429   19.0420   23.8921 H   0  0  0  0  0  0  0  0  0  0  0  0
   18.4421   17.9575   25.6702 N   0  3  0  0  0  0  0  0  0  0  0  0
   17.4373   18.1642   25.6722 H   0  0  0  0  0  0  0  0  0  0  0  0
   18.7353   17.8951   26.6506 H   0  0  0  0  0  0  0  0  0  0  0  0
   18.5546   17.0241   25.2617 H   0  0  0  0  0  0  0  0  0  0  0  0
  1  2  1  0  0  0  0
  1  3  1  0  0  0  0
  1  4  1  0  0  0  0
  1  5  1  0  0  0  0
  5  6  1  0  0  0  0
  5  7  1  0  0  0  0
  5  8  1  0  0  0  0
  8  9  1  0  0  0  0
  8 10  1  0  0  0  0
  8 11  1  0  0  0  0
 11 12  1  0  0  0  0
 11 13  1  0  0  0  0
 11 14  1  0  0  0  0
 14 15  1  0  0  0  0
 14 16  1  0  0  0  0
 14 17  1  0  0  0  0
 17 18  1  0  0  0  0
 17 19  1  0  0  0  0
 17 20  1  0  0  0  0
 20 21  1  0  0  0  0
 20 22  1  0  0  0  0
 20 23  1  0  0  0  0
 23 24  1  0  0  0  0
 23 25  1  0  0  0  0
 23 26  1  0  0  0  0
M  END
> <VM2 Rank>
194

> <Conf_Id>
1246

> <Probability>
0.00

> <Sum Probability>
100.00

> <Delta G>
5.824

> <G>
54.085

> <E>
20.802

> <-TS>
33.283

> <U+W>
-0.660

> <U>
53.727

> <W>
-54.387

> <W(PB)>
-56.588

> <W(SA)>
2.200

> <Valence>
7.056

> <Coulomb>
46.464

> <VdW>
0.207

> <VdW6>
-9.122

> <VdW12>
9.329

> <Bond>
0.248

> <Angle>
1.758

> <Pdih>
5.050

> <Idih>
0.000

> <Tether>
0.000

$$$$
VeraChem MOL file


 26 25  0  0  0  0  0  0  0  0999 V2000     
   21.2677   20.3028   20.9095 C   0  0  0  0  0  0  0  0  0  0  0  0
   21.0244   21.1599   21.5507 H   0  0  0  0  0  0  0  0  0  0  0  0
   22.3540   20.2977   20.7516 H   0  0  0  0  0  0  0  0  0  0  0  0
   20.7862   20.4573   19.9350 H   0  0  0  0  0  0  0  0  0  0  0  0
   20.8044   18.9791   21.5533 C   0  0  0  0  0  0  0  0  0  0  0  0
   21.3345   18.8337   22.5019 H   0  0  0  0  0  0  0  0  0  0  0  0
   21.0953   18.1398   20.9063 H   0  0  0  0  0  0  0  0  0  0  0  0
   19.2720   18.9549   21.7699 C   0  0  0  0  0  0  0  0  0  0  0  0
   18.9372   19.8529   22.3060 H   0  0  0  0  0  0  0  0  0  0  0  0
   18.7904   19.0005   20.7833 H   0  0  0  0  0  0  0  0  0  0  0  0
   18.7776   17.6801   22.5000 C   0  0  0  0  0  0  0  0  0  0  0  0
   19.4543   16.8389   22.2958 H   0  0  0  0  0  0  0  0  0  0  0  0
   17.8131   17.3921   22.0591 H   0  0  0  0  0  0  0  0  0  0  0  0
   18.5590   17.8268   24.0305 C   0  0  0  0  0  0  0  0  0  0  0  0
   17.7960   18.5923   24.2291 H   0  0  0  0  0  0  0  0  0  0  0  0
   18.1294   16.8823   24.3923 H   0  0  0  0  0  0  0  0  0  0  0  0
   19.8301   18.1212   24.8652 C   0  0  0  0  0  0  0  0  0  0  0  0
   20.6821   17.5541   24.4681 H   0  0  0  0  0  0  0  0  0  0  0  0
   19.6673   17.7565   25.8881 H   0  0  0  0  0  0  0  0  0  0  0  0
   20.1666   19.6231   24.9434 C   0  0  0  0  0  0  0  0  0  0  0  0
   20.3328   20.0249   23.9420 H   0  0  0  0  0  0  0  0  0  0  0  0
   19.3288   20.1630   25.3928 H   0  0  0  0  0  0  0  0  0  0  0  0
   21.4036   19.9110   25.7692 N   0  3  0  0  0  0  0  0  0  0  0  0
   21.6080   20.9153   25.8117 H   0  0  0  0  0  0  0  0  0  0  0  0
   22.2358   19.4523   25.3847 H   0  0  0  0  0  0  0  0  0  0  0  0
   21.3002   19.5869   26.7364 H   0  0  0  0  0  0  0  0  0  0  0  0
  1  2  1  0  0  0  0
  1  3  1  0  0  0  0
  1  4  1  0  0  0  0
  1  5  1  0  0  0  0
  5  6  1  0  0  0  0
  5  7  1  0  0  0  0
  5  8  1  0  0  0  0
  8  9  1  0  0  0  0
  8 10  1  0  0  0  0
  8 11  1  0  0  0  0
 11 12  1  0  0  0  0
 11 13  1  0  0  0  0
 11 14  1  0  0  0  0
 14 15  1  0  0  0  0
 14 16  1  0  0  0  0
 14 17  1  0  0  0  0
 17 18  1  0  0  0  0
 17 19  1  0  0  0  0
 17 20  1  0  0  0  0
 20 21  1  0  0  0  0
 20 22  1  0  0  0  0
 20 23  1  0  0  0  0
 23 24  1  0  0  0  0
 23 25  1  0  0  0  0
 23 26  1  0  0  0  0
M  END
> <VM2 Rank>
195

> <Conf_Id>
1581

> <Probability>
0.00

> <Sum Probability>
100.00

> <Delta G>
5.894

> <G>
54.155

> <E>
20.872

> <-TS>
33.283

> <U+W>
-0.590

> <U>
53.727

> <W>
-54.317

> <W(PB)>
-56.544

> <W(SA)>
2.228

> <Valence>
7.057

> <Coulomb>
46.464

> <VdW>
0.207

> <VdW6>
-9.121

> <VdW12>
9.328

> <Bond>
0.248

> <Angle>
1.758

> <Pdih>
5.050

> <Idih>
0.000

> <Tether>
0.000

$$$$
VeraChem MOL file


 26 25  0  0  0  0  0  0  0  0999 V2000     
   21.0302   20.2416   20.8773 C   0  0  0  0  0  0  0  0  0  0  0  0
   21.9204   20.2264   21.5190 H   0  0  0  0  0  0  0  0  0  0  0  0
   21.3301   20.6465   19.9021 H   0  0  0  0  0  0  0  0  0  0  0  0
   20.3007   20.9372   21.3099 H   0  0  0  0  0  0  0  0  0  0  0  0
   20.4380   18.8234   20.7108 C   0  0  0  0  0  0  0  0  0  0  0  0
   21.1648   18.1983   20.1734 H   0  0  0  0  0  0  0  0  0  0  0  0
   19.5424   18.8677   20.0754 H   0  0  0  0  0  0  0  0  0  0  0  0
   20.0936   18.1396   22.0553 C   0  0  0  0  0  0  0  0  0  0  0  0
   19.8126   17.0964   21.8554 H   0  0  0  0  0  0  0  0  0  0  0  0
   20.9961   18.0979   22.6774 H   0  0  0  0  0  0  0  0  0  0  0  0
   18.9333   18.8316   22.8150 C   0  0  0  0  0  0  0  0  0  0  0  0
   18.0544   18.8655   22.1565 H   0  0  0  0  0  0  0  0  0  0  0  0
   19.1752   19.8774   23.0349 H   0  0  0  0  0  0  0  0  0  0  0  0
   18.5310   18.1041   24.1229 C   0  0  0  0  0  0  0  0  0  0  0  0
   17.6706   18.6269   24.5630 H   0  0  0  0  0  0  0  0  0  0  0  0
   18.1704   17.0974   23.8705 H   0  0  0  0  0  0  0  0  0  0  0  0
   19.6402   17.9769   25.2017 C   0  0  0  0  0  0  0  0  0  0  0  0
   20.4672   17.3517   24.8418 H   0  0  0  0  0  0  0  0  0  0  0  0
   19.2129   17.4367   26.0569 H   0  0  0  0  0  0  0  0  0  0  0  0
   20.1794   19.3256   25.7223 C   0  0  0  0  0  0  0  0  0  0  0  0
   19.3539   20.0334   25.8362 H   0  0  0  0  0  0  0  0  0  0  0  0
   20.6349   19.1748   26.7048 H   0  0  0  0  0  0  0  0  0  0  0  0
   21.2354   19.9562   24.8356 N   0  3  0  0  0  0  0  0  0  0  0  0
   21.5314   20.8726   25.1898 H   0  0  0  0  0  0  0  0  0  0  0  0
   20.8905   20.0906   23.8800 H   0  0  0  0  0  0  0  0  0  0  0  0
   22.0762   19.3724   24.7772 H   0  0  0  0  0  0  0  0  0  0  0  0
  1  2  1  0  0  0  0
  1  3  1  0  0  0  0
  1  4  1  0  0  0  0
  1  5  1  0  0  0  0
  5  6  1  0  0  0  0
  5  7  1  0  0  0  0
  5  8  1  0  0  0  0
  8  9  1  0  0  0  0
  8 10  1  0  0  0  0
  8 11  1  0  0  0  0
 11 12  1  0  0  0  0
 11 13  1  0  0  0  0
 11 14  1  0  0  0  0
 14 15  1  0  0  0  0
 14 16  1  0  0  0  0
 14 17  1  0  0  0  0
 17 18  1  0  0  0  0
 17 19  1  0  0  0  0
 17 20  1  0  0  0  0
 20 21  1  0  0  0  0
 20 22  1  0  0  0  0
 20 23  1  0  0  0  0
 23 24  1  0  0  0  0
 23 25  1  0  0  0  0
 23 26  1  0  0  0  0
M  END
> <VM2 Rank>
196

> <Conf_Id>
1520

> <Probability>
0.00

> <Sum Probability>
100.00

> <Delta G>
5.911

> <G>
54.172

> <E>
20.795

> <-TS>
33.377

> <U+W>
-0.667

> <U>
52.431

> <W>
-53.097

> <W(PB)>
-55.283

> <W(SA)>
2.186

> <Valence>
4.698

> <Coulomb>
47.456

> <VdW>
0.276

> <VdW6>
-9.681

> <VdW12>
9.958

> <Bond>
0.267

> <Angle>
1.656

> <Pdih>
2.775

> <Idih>
0.000

> <Tether>
0.000

$$$$
VeraChem MOL file


 26 25  0  0  0  0  0  0  0  0999 V2000     
   19.5178   20.0273   20.4583 C   0  0  0  0  0  0  0  0  0  0  0  0
   18.7560   20.4714   21.1119 H   0  0  0  0  0  0  0  0  0  0  0  0
   20.4930   20.4581   20.7174 H   0  0  0  0  0  0  0  0  0  0  0  0
   19.2897   20.3250   19.4267 H   0  0  0  0  0  0  0  0  0  0  0  0
   19.5314   18.4881   20.5859 C   0  0  0  0  0  0  0  0  0  0  0  0
   20.3199   18.0749   19.9416 H   0  0  0  0  0  0  0  0  0  0  0  0
   18.5825   18.0934   20.1966 H   0  0  0  0  0  0  0  0  0  0  0  0
   19.7223   17.9754   22.0360 C   0  0  0  0  0  0  0  0  0  0  0  0
   18.8866   18.3171   22.6587 H   0  0  0  0  0  0  0  0  0  0  0  0
   19.6495   16.8793   22.0138 H   0  0  0  0  0  0  0  0  0  0  0  0
   21.0855   18.3579   22.6747 C   0  0  0  0  0  0  0  0  0  0  0  0
   21.8359   18.4595   21.8785 H   0  0  0  0  0  0  0  0  0  0  0  0
   21.4398   17.5271   23.3004 H   0  0  0  0  0  0  0  0  0  0  0  0
   21.0625   19.6563   23.5261 C   0  0  0  0  0  0  0  0  0  0  0  0
   22.0511   20.1308   23.4574 H   0  0  0  0  0  0  0  0  0  0  0  0
   20.3524   20.3819   23.1100 H   0  0  0  0  0  0  0  0  0  0  0  0
   20.7535   19.4237   25.0263 C   0  0  0  0  0  0  0  0  0  0  0  0
   20.8319   20.3825   25.5560 H   0  0  0  0  0  0  0  0  0  0  0  0
   21.5183   18.7655   25.4598 H   0  0  0  0  0  0  0  0  0  0  0  0
   19.3591   18.8242   25.2808 C   0  0  0  0  0  0  0  0  0  0  0  0
   18.5941   19.4761   24.8505 H   0  0  0  0  0  0  0  0  0  0  0  0
   19.2877   17.8441   24.8021 H   0  0  0  0  0  0  0  0  0  0  0  0
   19.0488   18.6461   26.7530 N   0  3  0  0  0  0  0  0  0  0  0  0
   18.1164   18.2445   26.9003 H   0  0  0  0  0  0  0  0  0  0  0  0
   19.0730   19.5375   27.2590 H   0  0  0  0  0  0  0  0  0  0  0  0
   19.7192   18.0206   27.2117 H   0  0  0  0  0  0  0  0  0  0  0  0
  1  2  1  0  0  0  0
  1  3  1  0  0  0  0
  1  4  1  0  0  0  0
  1  5  1  0  0  0  0
  5  6  1  0  0  0  0
  5  7  1  0  0  0  0
  5  8  1  0  0  0  0
  8  9  1  0  0  0  0
  8 10  1  0  0  0  0
  8 11  1  0  0  0  0
 11 12  1  0  0  0  0
 11 13  1  0  0  0  0
 11 14  1  0  0  0  0
 14 15  1  0  0  0  0
 14 16  1  0  0  0  0
 14 17  1  0  0  0  0
 17 18  1  0  0  0  0
 17 19  1  0  0  0  0
 17 20  1  0  0  0  0
 20 21  1  0  0  0  0
 20 22  1  0  0  0  0
 20 23  1  0  0  0  0
 23 24  1  0  0  0  0
 23 25  1  0  0  0  0
 23 26  1  0  0  0  0
M  END
> <VM2 Rank>
197

> <Conf_Id>
1327

> <Probability>
0.00

> <Sum Probability>
100.00

> <Delta G>
5.924

> <G>
54.185

> <E>
21.143

> <-TS>
33.042

> <U+W>
-0.319

> <U>
53.651

> <W>
-53.970

> <W(PB)>
-56.216

> <W(SA)>
2.246

> <Valence>
7.361

> <Coulomb>
45.564

> <VdW>
0.725

> <VdW6>
-8.886

> <VdW12>
9.611

> <Bond>
0.293

> <Angle>
1.529

> <Pdih>
5.540

> <Idih>
0.000

> <Tether>
0.000

$$$$
VeraChem MOL file


 26 25  0  0  0  0  0  0  0  0999 V2000     
   18.5123   18.5815   20.7936 C   0  0  0  0  0  0  0  0  0  0  0  0
   18.1468   17.7382   21.3935 H   0  0  0  0  0  0  0  0  0  0  0  0
   18.1399   19.5125   21.2382 H   0  0  0  0  0  0  0  0  0  0  0  0
   18.0677   18.4957   19.7936 H   0  0  0  0  0  0  0  0  0  0  0  0
   20.0552   18.5712   20.6981 C   0  0  0  0  0  0  0  0  0  0  0  0
   20.3957   19.4308   20.1040 H   0  0  0  0  0  0  0  0  0  0  0  0
   20.3687   17.6737   20.1468 H   0  0  0  0  0  0  0  0  0  0  0  0
   20.7562   18.5764   22.0774 C   0  0  0  0  0  0  0  0  0  0  0  0
   20.4111   17.7121   22.6578 H   0  0  0  0  0  0  0  0  0  0  0  0
   21.8339   18.4292   21.9226 H   0  0  0  0  0  0  0  0  0  0  0  0
   20.5414   19.8918   22.8687 C   0  0  0  0  0  0  0  0  0  0  0  0
   19.4757   20.0755   23.0449 H   0  0  0  0  0  0  0  0  0  0  0  0
   20.8864   20.7325   22.2511 H   0  0  0  0  0  0  0  0  0  0  0  0
   21.3067   19.9338   24.2157 C   0  0  0  0  0  0  0  0  0  0  0  0
   22.3847   19.8754   24.0114 H   0  0  0  0  0  0  0  0  0  0  0  0
   21.1443   20.9168   24.6791 H   0  0  0  0  0  0  0  0  0  0  0  0
   20.9372   18.8319   25.2450 C   0  0  0  0  0  0  0  0  0  0  0  0
   21.5614   18.9848   26.1354 H   0  0  0  0  0  0  0  0  0  0  0  0
   21.2031   17.8368   24.8663 H   0  0  0  0  0  0  0  0  0  0  0  0
   19.4624   18.8531   25.6982 C   0  0  0  0  0  0  0  0  0  0  0  0
   19.3760   18.3452   26.6626 H   0  0  0  0  0  0  0  0  0  0  0  0
   19.1316   19.8869   25.8284 H   0  0  0  0  0  0  0  0  0  0  0  0
   18.5096   18.1593   24.7443 N   0  3  0  0  0  0  0  0  0  0  0  0
   18.7179   17.1586   24.6650 H   0  0  0  0  0  0  0  0  0  0  0  0
   18.5663   18.5582   23.8021 H   0  0  0  0  0  0  0  0  0  0  0  0
   17.5352   18.2383   25.0559 H   0  0  0  0  0  0  0  0  0  0  0  0
  1  2  1  0  0  0  0
  1  3  1  0  0  0  0
  1  4  1  0  0  0  0
  1  5  1  0  0  0  0
  5  6  1  0  0  0  0
  5  7  1  0  0  0  0
  5  8  1  0  0  0  0
  8  9  1  0  0  0  0
  8 10  1  0  0  0  0
  8 11  1  0  0  0  0
 11 12  1  0  0  0  0
 11 13  1  0  0  0  0
 11 14  1  0  0  0  0
 14 15  1  0  0  0  0
 14 16  1  0  0  0  0
 14 17  1  0  0  0  0
 17 18  1  0  0  0  0
 17 19  1  0  0  0  0
 17 20  1  0  0  0  0
 20 21  1  0  0  0  0
 20 22  1  0  0  0  0
 20 23  1  0  0  0  0
 23 24  1  0  0  0  0
 23 25  1  0  0  0  0
 23 26  1  0  0  0  0
M  END
> <VM2 Rank>
198

> <Conf_Id>
189

> <Probability>
0.00

> <Sum Probability>
100.00

> <Delta G>
6.011

> <G>
54.273

> <E>
20.896

> <-TS>
33.377

> <U+W>
-0.566

> <U>
52.431

> <W>
-52.997

> <W(PB)>
-55.181

> <W(SA)>
2.184

> <Valence>
4.698

> <Coulomb>
47.456

> <VdW>
0.276

> <VdW6>
-9.682

> <VdW12>
9.958

> <Bond>
0.267

> <Angle>
1.656

> <Pdih>
2.775

> <Idih>
0.000

> <Tether>
0.000

$$$$
VeraChem MOL file


 26 25  0  0  0  0  0  0  0  0999 V2000     
   19.2295   19.5565   20.1674 C   0  0  0  0  0  0  0  0  0  0  0  0
   19.9777   20.1007   19.5766 H   0  0  0  0  0  0  0  0  0  0  0  0
   18.3740   19.3499   19.5113 H   0  0  0  0  0  0  0  0  0  0  0  0
   18.8803   20.2206   20.9653 H   0  0  0  0  0  0  0  0  0  0  0  0
   19.8158   18.2369   20.7211 C   0  0  0  0  0  0  0  0  0  0  0  0
   20.0955   17.6072   19.8648 H   0  0  0  0  0  0  0  0  0  0  0  0
   19.0449   17.6769   21.2686 H   0  0  0  0  0  0  0  0  0  0  0  0
   21.0692   18.4398   21.6113 C   0  0  0  0  0  0  0  0  0  0  0  0
   21.7345   17.5780   21.4625 H   0  0  0  0  0  0  0  0  0  0  0  0
   21.6399   19.3150   21.2715 H   0  0  0  0  0  0  0  0  0  0  0  0
   20.7799   18.5459   23.1309 C   0  0  0  0  0  0  0  0  0  0  0  0
   21.7417   18.5914   23.6601 H   0  0  0  0  0  0  0  0  0  0  0  0
   20.2814   17.6250   23.4583 H   0  0  0  0  0  0  0  0  0  0  0  0
   19.9253   19.7727   23.5302 C   0  0  0  0  0  0  0  0  0  0  0  0
   20.3123   20.6602   23.0109 H   0  0  0  0  0  0  0  0  0  0  0  0
   18.8931   19.6309   23.1838 H   0  0  0  0  0  0  0  0  0  0  0  0
   19.9084   20.0718   25.0511 C   0  0  0  0  0  0  0  0  0  0  0  0
   19.3551   21.0080   25.2038 H   0  0  0  0  0  0  0  0  0  0  0  0
   20.9267   20.2610   25.4158 H   0  0  0  0  0  0  0  0  0  0  0  0
   19.2327   18.9823   25.9095 C   0  0  0  0  0  0  0  0  0  0  0  0
   18.9367   19.4173   26.8680 H   0  0  0  0  0  0  0  0  0  0  0  0
   18.3306   18.6215   25.4082 H   0  0  0  0  0  0  0  0  0  0  0  0
   20.1204   17.7930   26.2195 N   0  3  0  0  0  0  0  0  0  0  0  0
   19.6336   17.0941   26.7912 H   0  0  0  0  0  0  0  0  0  0  0  0
   20.9595   18.0713   26.7386 H   0  0  0  0  0  0  0  0  0  0  0  0
   20.4342   17.3211   25.3669 H   0  0  0  0  0  0  0  0  0  0  0  0
  1  2  1  0  0  0  0
  1  3  1  0  0  0  0
  1  4  1  0  0  0  0
  1  5  1  0  0  0  0
  5  6  1  0  0  0  0
  5  7  1  0  0  0  0
  5  8  1  0  0  0  0
  8  9  1  0  0  0  0
  8 10  1  0  0  0  0
  8 11  1  0  0  0  0
 11 12  1  0  0  0  0
 11 13  1  0  0  0  0
 11 14  1  0  0  0  0
 14 15  1  0  0  0  0
 14 16  1  0  0  0  0
 14 17  1  0  0  0  0
 17 18  1  0  0  0  0
 17 19  1  0  0  0  0
 17 20  1  0  0  0  0
 20 21  1  0  0  0  0
 20 22  1  0  0  0  0
 20 23  1  0  0  0  0
 23 24  1  0  0  0  0
 23 25  1  0  0  0  0
 23 26  1  0  0  0  0
M  END
> <VM2 Rank>
199

> <Conf_Id>
820

> <Probability>
0.00

> <Sum Probability>
100.00

> <Delta G>
6.038

> <G>
54.299

> <E>
21.439

> <-TS>
32.860

> <U+W>
-0.023

> <U>
53.913

> <W>
-53.936

> <W(PB)>
-56.166

> <W(SA)>
2.230

> <Valence>
6.633

> <Coulomb>
46.628

> <VdW>
0.652

> <VdW6>
-8.844

> <VdW12>
9.496

> <Bond>
0.271

> <Angle>
1.731

> <Pdih>
4.632

> <Idih>
0.000

> <Tether>
0.000

$$$$
VeraChem MOL file


 26 25  0  0  0  0  0  0  0  0999 V2000     
   20.0716   18.2247   20.2192 C   0  0  0  0  0  0  0  0  0  0  0  0
   19.0109   18.1171   20.4785 H   0  0  0  0  0  0  0  0  0  0  0  0
   20.1751   19.0786   19.5371 H   0  0  0  0  0  0  0  0  0  0  0  0
   20.3711   17.3206   19.6736 H   0  0  0  0  0  0  0  0  0  0  0  0
   20.9457   18.4109   21.4797 C   0  0  0  0  0  0  0  0  0  0  0  0
   22.0031   18.3856   21.1809 H   0  0  0  0  0  0  0  0  0  0  0  0
   20.8050   17.5556   22.1515 H   0  0  0  0  0  0  0  0  0  0  0  0
   20.6787   19.7443   22.2256 C   0  0  0  0  0  0  0  0  0  0  0  0
   21.3697   19.8252   23.0716 H   0  0  0  0  0  0  0  0  0  0  0  0
   20.9479   20.5725   21.5557 H   0  0  0  0  0  0  0  0  0  0  0  0
   19.2161   19.9665   22.7020 C   0  0  0  0  0  0  0  0  0  0  0  0
   18.5665   19.9990   21.8174 H   0  0  0  0  0  0  0  0  0  0  0  0
   19.1322   20.9648   23.1528 H   0  0  0  0  0  0  0  0  0  0  0  0
   18.6471   18.9110   23.6898 C   0  0  0  0  0  0  0  0  0  0  0  0
   17.5536   18.9152   23.5823 H   0  0  0  0  0  0  0  0  0  0  0  0
   18.9545   17.8974   23.4074 H   0  0  0  0  0  0  0  0  0  0  0  0
   18.9553   19.1805   25.1871 C   0  0  0  0  0  0  0  0  0  0  0  0
   18.4170   18.4435   25.7976 H   0  0  0  0  0  0  0  0  0  0  0  0
   18.5470   20.1601   25.4687 H   0  0  0  0  0  0  0  0  0  0  0  0
   20.4462   19.1414   25.5728 C   0  0  0  0  0  0  0  0  0  0  0  0
   20.9854   19.9337   25.0495 H   0  0  0  0  0  0  0  0  0  0  0  0
   20.5455   19.3219   26.6466 H   0  0  0  0  0  0  0  0  0  0  0  0
   21.1203   17.8197   25.2649 N   0  3  0  0  0  0  0  0  0  0  0  0
   20.6716   17.0415   25.7591 H   0  0  0  0  0  0  0  0  0  0  0  0
   22.1080   17.8220   25.5420 H   0  0  0  0  0  0  0  0  0  0  0  0
   21.0841   17.6081   24.2636 H   0  0  0  0  0  0  0  0  0  0  0  0
  1  2  1  0  0  0  0
  1  3  1  0  0  0  0
  1  4  1  0  0  0  0
  1  5  1  0  0  0  0
  5  6  1  0  0  0  0
  5  7  1  0  0  0  0
  5  8  1  0  0  0  0
  8  9  1  0  0  0  0
  8 10  1  0  0  0  0
  8 11  1  0  0  0  0
 11 12  1  0  0  0  0
 11 13  1  0  0  0  0
 11 14  1  0  0  0  0
 14 15  1  0  0  0  0
 14 16  1  0  0  0  0
 14 17  1  0  0  0  0
 17 18  1  0  0  0  0
 17 19  1  0  0  0  0
 17 20  1  0  0  0  0
 20 21  1  0  0  0  0
 20 22  1  0  0  0  0
 20 23  1  0  0  0  0
 23 24  1  0  0  0  0
 23 25  1  0  0  0  0
 23 26  1  0  0  0  0
M  END
> <VM2 Rank>
200

> <Conf_Id>
829

> <Probability>
0.00

> <Sum Probability>
100.00

> <Delta G>
6.090

> <G>
54.351

> <E>
20.886

> <-TS>
33.466

> <U+W>
-0.576

> <U>
53.513

> <W>
-54.089

> <W(PB)>
-56.259

> <W(SA)>
2.170

> <Valence>
6.042

> <Coulomb>
47.146

> <VdW>
0.324

> <VdW6>
-10.117

> <VdW12>
10.441

> <Bond>
0.350

> <Angle>
2.482

> <Pdih>
3.210

> <Idih>
0.000

> <Tether>
0.000

$$$$
VeraChem MOL file


 26 25  0  0  0  0  0  0  0  0999 V2000     
   18.4164   18.5603   21.3572 C   0  0  0  0  0  0  0  0  0  0  0  0
   18.3119   18.9502   22.3751 H   0  0  0  0  0  0  0  0  0  0  0  0
   18.0303   19.3201   20.6653 H   0  0  0  0  0  0  0  0  0  0  0  0
   17.7731   17.6750   21.2717 H   0  0  0  0  0  0  0  0  0  0  0  0
   19.8814   18.1998   21.0165 C   0  0  0  0  0  0  0  0  0  0  0  0
   19.9001   17.8130   19.9880 H   0  0  0  0  0  0  0  0  0  0  0  0
   20.2372   17.3765   21.6504 H   0  0  0  0  0  0  0  0  0  0  0  0
   20.8497   19.4065   21.1035 C   0  0  0  0  0  0  0  0  0  0  0  0
   21.6143   19.2783   20.3249 H   0  0  0  0  0  0  0  0  0  0  0  0
   20.3224   20.3348   20.8442 H   0  0  0  0  0  0  0  0  0  0  0  0
   21.5960   19.5772   22.4547 C   0  0  0  0  0  0  0  0  0  0  0  0
   22.3226   20.3910   22.3232 H   0  0  0  0  0  0  0  0  0  0  0  0
   22.1962   18.6824   22.6695 H   0  0  0  0  0  0  0  0  0  0  0  0
   20.7050   19.9320   23.6723 C   0  0  0  0  0  0  0  0  0  0  0  0
   21.2659   20.6149   24.3256 H   0  0  0  0  0  0  0  0  0  0  0  0
   19.8202   20.4930   23.3428 H   0  0  0  0  0  0  0  0  0  0  0  0
   20.2936   18.6997   24.5131 C   0  0  0  0  0  0  0  0  0  0  0  0
   21.1934   18.2084   24.9065 H   0  0  0  0  0  0  0  0  0  0  0  0
   19.7785   17.9608   23.8895 H   0  0  0  0  0  0  0  0  0  0  0  0
   19.3798   19.1006   25.6843 C   0  0  0  0  0  0  0  0  0  0  0  0
   19.8985   19.8166   26.3275 H   0  0  0  0  0  0  0  0  0  0  0  0
   18.4749   19.5775   25.2982 H   0  0  0  0  0  0  0  0  0  0  0  0
   18.9591   17.9228   26.5393 N   0  3  0  0  0  0  0  0  0  0  0  0
   18.3515   18.2123   27.3136 H   0  0  0  0  0  0  0  0  0  0  0  0
   19.7655   17.4458   26.9556 H   0  0  0  0  0  0  0  0  0  0  0  0
   18.4404   17.2234   25.9983 H   0  0  0  0  0  0  0  0  0  0  0  0
  1  2  1  0  0  0  0
  1  3  1  0  0  0  0
  1  4  1  0  0  0  0
  1  5  1  0  0  0  0
  5  6  1  0  0  0  0
  5  7  1  0  0  0  0
  5  8  1  0  0  0  0
  8  9  1  0  0  0  0
  8 10  1  0  0  0  0
  8 11  1  0  0  0  0
 11 12  1  0  0  0  0
 11 13  1  0  0  0  0
 11 14  1  0  0  0  0
 14 15  1  0  0  0  0
 14 16  1  0  0  0  0
 14 17  1  0  0  0  0
 17 18  1  0  0  0  0
 17 19  1  0  0  0  0
 17 20  1  0  0  0  0
 20 21  1  0  0  0  0
 20 22  1  0  0  0  0
 20 23  1  0  0  0  0
 23 24  1  0  0  0  0
 23 25  1  0  0  0  0
 23 26  1  0  0  0  0
M  END
> <VM2 Rank>
201

> <Conf_Id>
103

> <Probability>
0.00

> <Sum Probability>
100.00

> <Delta G>
6.217

> <G>
54.478

> <E>
21.258

> <-TS>
33.220

> <U+W>
-0.204

> <U>
53.883

> <W>
-54.087

> <W(PB)>
-56.325

> <W(SA)>
2.237

> <Valence>
7.744

> <Coulomb>
45.678

> <VdW>
0.461

> <VdW6>
-8.645

> <VdW12>
9.106

> <Bond>
0.266

> <Angle>
1.932

> <Pdih>
5.545

> <Idih>
0.000

> <Tether>
0.000

$$$$
VeraChem MOL file


 26 25  0  0  0  0  0  0  0  0999 V2000     
   19.6294   20.0109   20.2049 C   0  0  0  0  0  0  0  0  0  0  0  0
   18.5676   19.8918   19.9529 H   0  0  0  0  0  0  0  0  0  0  0  0
   19.6983   20.6906   21.0613 H   0  0  0  0  0  0  0  0  0  0  0  0
   20.1206   20.4989   19.3532 H   0  0  0  0  0  0  0  0  0  0  0  0
   20.2848   18.6402   20.4940 C   0  0  0  0  0  0  0  0  0  0  0  0
   21.3614   18.7622   20.6773 H   0  0  0  0  0  0  0  0  0  0  0  0
   20.2010   18.0275   19.5855 H   0  0  0  0  0  0  0  0  0  0  0  0
   19.6210   17.8748   21.6679 C   0  0  0  0  0  0  0  0  0  0  0  0
   18.5570   18.1390   21.7403 H   0  0  0  0  0  0  0  0  0  0  0  0
   19.6432   16.8021   21.4307 H   0  0  0  0  0  0  0  0  0  0  0  0
   20.3120   18.0613   23.0436 C   0  0  0  0  0  0  0  0  0  0  0  0
   21.3477   17.7002   22.9803 H   0  0  0  0  0  0  0  0  0  0  0  0
   19.8092   17.4056   23.7623 H   0  0  0  0  0  0  0  0  0  0  0  0
   20.3116   19.5206   23.5634 C   0  0  0  0  0  0  0  0  0  0  0  0
   20.9423   20.1223   22.8963 H   0  0  0  0  0  0  0  0  0  0  0  0
   19.3010   19.9479   23.5068 H   0  0  0  0  0  0  0  0  0  0  0  0
   20.8687   19.6728   25.0023 C   0  0  0  0  0  0  0  0  0  0  0  0
   21.2868   20.6835   25.1011 H   0  0  0  0  0  0  0  0  0  0  0  0
   21.7072   18.9833   25.1676 H   0  0  0  0  0  0  0  0  0  0  0  0
   19.8102   19.5080   26.1137 C   0  0  0  0  0  0  0  0  0  0  0  0
   20.2590   19.7726   27.0750 H   0  0  0  0  0  0  0  0  0  0  0  0
   18.9780   20.1929   25.9305 H   0  0  0  0  0  0  0  0  0  0  0  0
   19.2433   18.1103   26.2512 N   0  3  0  0  0  0  0  0  0  0  0  0
   19.9766   17.4190   26.4387 H   0  0  0  0  0  0  0  0  0  0  0  0
   18.7555   17.8178   25.3992 H   0  0  0  0  0  0  0  0  0  0  0  0
   18.5678   18.0483   27.0208 H   0  0  0  0  0  0  0  0  0  0  0  0
  1  2  1  0  0  0  0
  1  3  1  0  0  0  0
  1  4  1  0  0  0  0
  1  5  1  0  0  0  0
  5  6  1  0  0  0  0
  5  7  1  0  0  0  0
  5  8  1  0  0  0  0
  8  9  1  0  0  0  0
  8 10  1  0  0  0  0
  8 11  1  0  0  0  0
 11 12  1  0  0  0  0
 11 13  1  0  0  0  0
 11 14  1  0  0  0  0
 14 15  1  0  0  0  0
 14 16  1  0  0  0  0
 14 17  1  0  0  0  0
 17 18  1  0  0  0  0
 17 19  1  0  0  0  0
 17 20  1  0  0  0  0
 20 21  1  0  0  0  0
 20 22  1  0  0  0  0
 20 23  1  0  0  0  0
 23 24  1  0  0  0  0
 23 25  1  0  0  0  0
 23 26  1  0  0  0  0
M  END
> <VM2 Rank>
202

> <Conf_Id>
526

> <Probability>
0.00

> <Sum Probability>
100.00

> <Delta G>
6.235

> <G>
54.496

> <E>
21.867

> <-TS>
32.629

> <U+W>
0.405

> <U>
54.286

> <W>
-53.881

> <W(PB)>
-56.124

> <W(SA)>
2.243

> <Valence>
7.200

> <Coulomb>
46.254

> <VdW>
0.832

> <VdW6>
-8.602

> <VdW12>
9.433

> <Bond>
0.281

> <Angle>
1.745

> <Pdih>
5.174

> <Idih>
0.000

> <Tether>
0.000

$$$$
VeraChem MOL file


 26 25  0  0  0  0  0  0  0  0999 V2000     
   19.6450   18.2559   19.7141 C   0  0  0  0  0  0  0  0  0  0  0  0
   19.3715   19.2015   19.2280 H   0  0  0  0  0  0  0  0  0  0  0  0
   20.6008   17.9185   19.2924 H   0  0  0  0  0  0  0  0  0  0  0  0
   18.8814   17.5109   19.4558 H   0  0  0  0  0  0  0  0  0  0  0  0
   19.7430   18.4276   21.2448 C   0  0  0  0  0  0  0  0  0  0  0  0
   19.9898   17.4604   21.7042 H   0  0  0  0  0  0  0  0  0  0  0  0
   18.7604   18.7281   21.6323 H   0  0  0  0  0  0  0  0  0  0  0  0
   20.8084   19.4783   21.6338 C   0  0  0  0  0  0  0  0  0  0  0  0
   21.7637   19.2083   21.1628 H   0  0  0  0  0  0  0  0  0  0  0  0
   20.5283   20.4556   21.2171 H   0  0  0  0  0  0  0  0  0  0  0  0
   21.0379   19.6149   23.1609 C   0  0  0  0  0  0  0  0  0  0  0  0
   21.8532   20.3361   23.3108 H   0  0  0  0  0  0  0  0  0  0  0  0
   21.4041   18.6624   23.5618 H   0  0  0  0  0  0  0  0  0  0  0  0
   19.7974   20.1138   23.9513 C   0  0  0  0  0  0  0  0  0  0  0  0
   20.1241   20.7931   24.7509 H   0  0  0  0  0  0  0  0  0  0  0  0
   19.1737   20.7284   23.2876 H   0  0  0  0  0  0  0  0  0  0  0  0
   18.9288   18.9889   24.5755 C   0  0  0  0  0  0  0  0  0  0  0  0
   18.8954   18.1067   23.9252 H   0  0  0  0  0  0  0  0  0  0  0  0
   17.8947   19.3512   24.6480 H   0  0  0  0  0  0  0  0  0  0  0  0
   19.3734   18.5770   25.9949 C   0  0  0  0  0  0  0  0  0  0  0  0
   19.3759   19.4559   26.6451 H   0  0  0  0  0  0  0  0  0  0  0  0
   18.6575   17.8577   26.4019 H   0  0  0  0  0  0  0  0  0  0  0  0
   20.7472   17.9426   26.0657 N   0  3  0  0  0  0  0  0  0  0  0  0
   21.4723   18.5814   25.7248 H   0  0  0  0  0  0  0  0  0  0  0  0
   20.8010   17.0883   25.5020 H   0  0  0  0  0  0  0  0  0  0  0  0
   20.9983   17.6853   27.0265 H   0  0  0  0  0  0  0  0  0  0  0  0
  1  2  1  0  0  0  0
  1  3  1  0  0  0  0
  1  4  1  0  0  0  0
  1  5  1  0  0  0  0
  5  6  1  0  0  0  0
  5  7  1  0  0  0  0
  5  8  1  0  0  0  0
  8  9  1  0  0  0  0
  8 10  1  0  0  0  0
  8 11  1  0  0  0  0
 11 12  1  0  0  0  0
 11 13  1  0  0  0  0
 11 14  1  0  0  0  0
 14 15  1  0  0  0  0
 14 16  1  0  0  0  0
 14 17  1  0  0  0  0
 17 18  1  0  0  0  0
 17 19  1  0  0  0  0
 17 20  1  0  0  0  0
 20 21  1  0  0  0  0
 20 22  1  0  0  0  0
 20 23  1  0  0  0  0
 23 24  1  0  0  0  0
 23 25  1  0  0  0  0
 23 26  1  0  0  0  0
M  END
> <VM2 Rank>
203

> <Conf_Id>
236

> <Probability>
0.00

> <Sum Probability>
100.00

> <Delta G>
6.269

> <G>
54.530

> <E>
21.556

> <-TS>
32.974

> <U+W>
0.094

> <U>
54.162

> <W>
-54.067

> <W(PB)>
-56.303

> <W(SA)>
2.236

> <Valence>
7.004

> <Coulomb>
46.400

> <VdW>
0.758

> <VdW6>
-8.752

> <VdW12>
9.510

> <Bond>
0.280

> <Angle>
1.396

> <Pdih>
5.328

> <Idih>
0.000

> <Tether>
0.000

$$$$
VeraChem MOL file


 26 25  0  0  0  0  0  0  0  0999 V2000     
   18.5413   19.6699   20.6589 C   0  0  0  0  0  0  0  0  0  0  0  0
   19.0409   20.2589   19.8787 H   0  0  0  0  0  0  0  0  0  0  0  0
   17.7116   19.1249   20.1904 H   0  0  0  0  0  0  0  0  0  0  0  0
   18.1152   20.3664   21.3928 H   0  0  0  0  0  0  0  0  0  0  0  0
   19.5265   18.6904   21.3306 C   0  0  0  0  0  0  0  0  0  0  0  0
   19.9062   17.9850   20.5782 H   0  0  0  0  0  0  0  0  0  0  0  0
   18.9894   18.0878   22.0729 H   0  0  0  0  0  0  0  0  0  0  0  0
   20.7157   19.4348   21.9840 C   0  0  0  0  0  0  0  0  0  0  0  0
   21.2830   19.9331   21.1857 H   0  0  0  0  0  0  0  0  0  0  0  0
   20.3613   20.2384   22.6429 H   0  0  0  0  0  0  0  0  0  0  0  0
   21.6745   18.4926   22.7555 C   0  0  0  0  0  0  0  0  0  0  0  0
   22.7018   18.8427   22.5838 H   0  0  0  0  0  0  0  0  0  0  0  0
   21.6368   17.4804   22.3297 H   0  0  0  0  0  0  0  0  0  0  0  0
   21.4590   18.4307   24.2919 C   0  0  0  0  0  0  0  0  0  0  0  0
   22.2557   17.7976   24.7066 H   0  0  0  0  0  0  0  0  0  0  0  0
   21.6199   19.4236   24.7313 H   0  0  0  0  0  0  0  0  0  0  0  0
   20.1005   17.8432   24.7578 C   0  0  0  0  0  0  0  0  0  0  0  0
   20.2185   17.4381   25.7717 H   0  0  0  0  0  0  0  0  0  0  0  0
   19.8316   16.9882   24.1240 H   0  0  0  0  0  0  0  0  0  0  0  0
   18.9370   18.8568   24.7812 C   0  0  0  0  0  0  0  0  0  0  0  0
   18.8053   19.3037   23.7940 H   0  0  0  0  0  0  0  0  0  0  0  0
   18.0117   18.3364   25.0431 H   0  0  0  0  0  0  0  0  0  0  0  0
   19.1264   19.9806   25.7811 N   0  3  0  0  0  0  0  0  0  0  0  0
   18.3299   20.6268   25.7834 H   0  0  0  0  0  0  0  0  0  0  0  0
   19.9631   20.5349   25.5756 H   0  0  0  0  0  0  0  0  0  0  0  0
   19.2260   19.6253   26.7375 H   0  0  0  0  0  0  0  0  0  0  0  0
  1  2  1  0  0  0  0
  1  3  1  0  0  0  0
  1  4  1  0  0  0  0
  1  5  1  0  0  0  0
  5  6  1  0  0  0  0
  5  7  1  0  0  0  0
  5  8  1  0  0  0  0
  8  9  1  0  0  0  0
  8 10  1  0  0  0  0
  8 11  1  0  0  0  0
 11 12  1  0  0  0  0
 11 13  1  0  0  0  0
 11 14  1  0  0  0  0
 14 15  1  0  0  0  0
 14 16  1  0  0  0  0
 14 17  1  0  0  0  0
 17 18  1  0  0  0  0
 17 19  1  0  0  0  0
 17 20  1  0  0  0  0
 20 21  1  0  0  0  0
 20 22  1  0  0  0  0
 20 23  1  0  0  0  0
 23 24  1  0  0  0  0
 23 25  1  0  0  0  0
 23 26  1  0  0  0  0
M  END
> <VM2 Rank>
204

> <Conf_Id>
824

> <Probability>
0.00

> <Sum Probability>
100.00

> <Delta G>
6.314

> <G>
54.575

> <E>
21.208

> <-TS>
33.367

> <U+W>
-0.254

> <U>
54.016

> <W>
-54.269

> <W(PB)>
-56.489

> <W(SA)>
2.219

> <Valence>
7.241

> <Coulomb>
46.463

> <VdW>
0.312

> <VdW6>
-9.614

> <VdW12>
9.926

> <Bond>
0.277

> <Angle>
1.893

> <Pdih>
5.071

> <Idih>
0.000

> <Tether>
0.000

$$$$
VeraChem MOL file


 26 25  0  0  0  0  0  0  0  0999 V2000     
   21.0608   20.3044   21.4457 C   0  0  0  0  0  0  0  0  0  0  0  0
   22.1305   20.5489   21.4175 H   0  0  0  0  0  0  0  0  0  0  0  0
   20.5468   20.9798   20.7496 H   0  0  0  0  0  0  0  0  0  0  0  0
   20.6964   20.5227   22.4550 H   0  0  0  0  0  0  0  0  0  0  0  0
   20.8326   18.8272   21.0483 C   0  0  0  0  0  0  0  0  0  0  0  0
   21.4196   18.1563   21.6898 H   0  0  0  0  0  0  0  0  0  0  0  0
   21.2284   18.6892   20.0323 H   0  0  0  0  0  0  0  0  0  0  0  0
   19.3399   18.4108   21.0531 C   0  0  0  0  0  0  0  0  0  0  0  0
   18.7064   19.2691   20.7902 H   0  0  0  0  0  0  0  0  0  0  0  0
   19.1937   17.6818   20.2439 H   0  0  0  0  0  0  0  0  0  0  0  0
   18.8272   17.7511   22.3622 C   0  0  0  0  0  0  0  0  0  0  0  0
   19.4035   16.8405   22.5761 H   0  0  0  0  0  0  0  0  0  0  0  0
   17.8006   17.4084   22.1721 H   0  0  0  0  0  0  0  0  0  0  0  0
   18.7946   18.6720   23.6085 C   0  0  0  0  0  0  0  0  0  0  0  0
   18.6420   19.7159   23.3034 H   0  0  0  0  0  0  0  0  0  0  0  0
   17.9166   18.4059   24.2136 H   0  0  0  0  0  0  0  0  0  0  0  0
   20.0488   18.5382   24.5050 C   0  0  0  0  0  0  0  0  0  0  0  0
   20.9588   18.7389   23.9290 H   0  0  0  0  0  0  0  0  0  0  0  0
   20.1282   17.5060   24.8712 H   0  0  0  0  0  0  0  0  0  0  0  0
   19.9850   19.4998   25.7043 C   0  0  0  0  0  0  0  0  0  0  0  0
   19.9205   20.5308   25.3462 H   0  0  0  0  0  0  0  0  0  0  0  0
   19.0936   19.2863   26.3004 H   0  0  0  0  0  0  0  0  0  0  0  0
   21.1921   19.3955   26.6140 N   0  3  0  0  0  0  0  0  0  0  0  0
   21.1288   20.0441   27.4063 H   0  0  0  0  0  0  0  0  0  0  0  0
   22.0635   19.6125   26.1194 H   0  0  0  0  0  0  0  0  0  0  0  0
   21.2939   18.4540   27.0069 H   0  0  0  0  0  0  0  0  0  0  0  0
  1  2  1  0  0  0  0
  1  3  1  0  0  0  0
  1  4  1  0  0  0  0
  1  5  1  0  0  0  0
  5  6  1  0  0  0  0
  5  7  1  0  0  0  0
  5  8  1  0  0  0  0
  8  9  1  0  0  0  0
  8 10  1  0  0  0  0
  8 11  1  0  0  0  0
 11 12  1  0  0  0  0
 11 13  1  0  0  0  0
 11 14  1  0  0  0  0
 14 15  1  0  0  0  0
 14 16  1  0  0  0  0
 14 17  1  0  0  0  0
 17 18  1  0  0  0  0
 17 19  1  0  0  0  0
 17 20  1  0  0  0  0
 20 21  1  0  0  0  0
 20 22  1  0  0  0  0
 20 23  1  0  0  0  0
 23 24  1  0  0  0  0
 23 25  1  0  0  0  0
 23 26  1  0  0  0  0
M  END
> <VM2 Rank>
205

> <Conf_Id>
684

> <Probability>
0.00

> <Sum Probability>
100.00

> <Delta G>
6.319

> <G>
54.581

> <E>
21.360

> <-TS>
33.220

> <U+W>
-0.101

> <U>
53.883

> <W>
-53.985

> <W(PB)>
-56.249

> <W(SA)>
2.264

> <Valence>
7.744

> <Coulomb>
45.678

> <VdW>
0.462

> <VdW6>
-8.645

> <VdW12>
9.106

> <Bond>
0.266

> <Angle>
1.932

> <Pdih>
5.545

> <Idih>
0.000

> <Tether>
0.000

$$$$
VeraChem MOL file


 26 25  0  0  0  0  0  0  0  0999 V2000     
   18.5887   19.5980   21.1540 C   0  0  0  0  0  0  0  0  0  0  0  0
   18.5295   19.8207   22.2244 H   0  0  0  0  0  0  0  0  0  0  0  0
   18.7820   20.5400   20.6247 H   0  0  0  0  0  0  0  0  0  0  0  0
   17.6037   19.2334   20.8351 H   0  0  0  0  0  0  0  0  0  0  0  0
   19.6822   18.5522   20.8337 C   0  0  0  0  0  0  0  0  0  0  0  0
   19.6671   18.3744   19.7492 H   0  0  0  0  0  0  0  0  0  0  0  0
   19.4437   17.5855   21.2970 H   0  0  0  0  0  0  0  0  0  0  0  0
   21.1086   19.0066   21.2346 C   0  0  0  0  0  0  0  0  0  0  0  0
   21.8110   18.5865   20.5014 H   0  0  0  0  0  0  0  0  0  0  0  0
   21.2007   20.0969   21.1353 H   0  0  0  0  0  0  0  0  0  0  0  0
   21.5911   18.5566   22.6405 C   0  0  0  0  0  0  0  0  0  0  0  0
   22.6486   18.8424   22.7269 H   0  0  0  0  0  0  0  0  0  0  0  0
   21.5790   17.4602   22.7105 H   0  0  0  0  0  0  0  0  0  0  0  0
   20.8338   19.1805   23.8403 C   0  0  0  0  0  0  0  0  0  0  0  0
   21.5583   19.3584   24.6462 H   0  0  0  0  0  0  0  0  0  0  0  0
   20.4406   20.1685   23.5659 H   0  0  0  0  0  0  0  0  0  0  0  0
   19.7053   18.2722   24.3912 C   0  0  0  0  0  0  0  0  0  0  0  0
   20.1346   17.3380   24.7769 H   0  0  0  0  0  0  0  0  0  0  0  0
   19.0218   17.9840   23.5848 H   0  0  0  0  0  0  0  0  0  0  0  0
   18.8835   18.9545   25.5016 C   0  0  0  0  0  0  0  0  0  0  0  0
   18.4553   19.8862   25.1223 H   0  0  0  0  0  0  0  0  0  0  0  0
   18.0616   18.2980   25.8000 H   0  0  0  0  0  0  0  0  0  0  0  0
   19.6879   19.2785   26.7452 N   0  3  0  0  0  0  0  0  0  0  0  0
   20.4582   19.9228   26.5416 H   0  0  0  0  0  0  0  0  0  0  0  0
   20.0986   18.4371   27.1627 H   0  0  0  0  0  0  0  0  0  0  0  0
   19.1098   19.7202   27.4683 H   0  0  0  0  0  0  0  0  0  0  0  0
  1  2  1  0  0  0  0
  1  3  1  0  0  0  0
  1  4  1  0  0  0  0
  1  5  1  0  0  0  0
  5  6  1  0  0  0  0
  5  7  1  0  0  0  0
  5  8  1  0  0  0  0
  8  9  1  0  0  0  0
  8 10  1  0  0  0  0
  8 11  1  0  0  0  0
 11 12  1  0  0  0  0
 11 13  1  0  0  0  0
 11 14  1  0  0  0  0
 14 15  1  0  0  0  0
 14 16  1  0  0  0  0
 14 17  1  0  0  0  0
 17 18  1  0  0  0  0
 17 19  1  0  0  0  0
 17 20  1  0  0  0  0
 20 21  1  0  0  0  0
 20 22  1  0  0  0  0
 20 23  1  0  0  0  0
 23 24  1  0  0  0  0
 23 25  1  0  0  0  0
 23 26  1  0  0  0  0
M  END
> <VM2 Rank>
206

> <Conf_Id>
791

> <Probability>
0.00

> <Sum Probability>
100.00

> <Delta G>
6.541

> <G>
54.802

> <E>
21.466

> <-TS>
33.336

> <U+W>
0.004

> <U>
54.063

> <W>
-54.059

> <W(PB)>
-56.251

> <W(SA)>
2.192

> <Valence>
7.875

> <Coulomb>
45.591

> <VdW>
0.597

> <VdW6>
-9.142

> <VdW12>
9.739

> <Bond>
0.290

> <Angle>
1.959

> <Pdih>
5.626

> <Idih>
0.000

> <Tether>
0.000

$$$$
VeraChem MOL file


 26 25  0  0  0  0  0  0  0  0999 V2000     
   18.7392   18.6864   20.0340 C   0  0  0  0  0  0  0  0  0  0  0  0
   17.7930   18.6840   20.5907 H   0  0  0  0  0  0  0  0  0  0  0  0
   18.8718   19.6815   19.5896 H   0  0  0  0  0  0  0  0  0  0  0  0
   18.6499   17.9610   19.2150 H   0  0  0  0  0  0  0  0  0  0  0  0
   19.9258   18.3270   20.9531 C   0  0  0  0  0  0  0  0  0  0  0  0
   20.8515   18.3037   20.3610 H   0  0  0  0  0  0  0  0  0  0  0  0
   19.7815   17.3139   21.3535 H   0  0  0  0  0  0  0  0  0  0  0  0
   20.0755   19.3356   22.1133 C   0  0  0  0  0  0  0  0  0  0  0  0
   20.2316   20.3421   21.7006 H   0  0  0  0  0  0  0  0  0  0  0  0
   19.1391   19.3837   22.6811 H   0  0  0  0  0  0  0  0  0  0  0  0
   21.2652   18.9781   23.0380 C   0  0  0  0  0  0  0  0  0  0  0  0
   22.1904   19.0863   22.4549 H   0  0  0  0  0  0  0  0  0  0  0  0
   21.2285   17.9234   23.3417 H   0  0  0  0  0  0  0  0  0  0  0  0
   21.3618   19.8907   24.2873 C   0  0  0  0  0  0  0  0  0  0  0  0
   22.4258   20.0623   24.5016 H   0  0  0  0  0  0  0  0  0  0  0  0
   20.9435   20.8823   24.0651 H   0  0  0  0  0  0  0  0  0  0  0  0
   20.7150   19.3201   25.5780 C   0  0  0  0  0  0  0  0  0  0  0  0
   20.9012   20.0353   26.3902 H   0  0  0  0  0  0  0  0  0  0  0  0
   21.2207   18.3920   25.8759 H   0  0  0  0  0  0  0  0  0  0  0  0
   19.1930   19.0833   25.5021 C   0  0  0  0  0  0  0  0  0  0  0  0
   18.7848   19.0572   26.5160 H   0  0  0  0  0  0  0  0  0  0  0  0
   18.7151   19.9066   24.9646 H   0  0  0  0  0  0  0  0  0  0  0  0
   18.8055   17.7778   24.8352 N   0  3  0  0  0  0  0  0  0  0  0  0
   19.1826   16.9685   25.3393 H   0  0  0  0  0  0  0  0  0  0  0  0
   19.1588   17.7320   23.8740 H   0  0  0  0  0  0  0  0  0  0  0  0
   17.7873   17.6582   24.7954 H   0  0  0  0  0  0  0  0  0  0  0  0
  1  2  1  0  0  0  0
  1  3  1  0  0  0  0
  1  4  1  0  0  0  0
  1  5  1  0  0  0  0
  5  6  1  0  0  0  0
  5  7  1  0  0  0  0
  5  8  1  0  0  0  0
  8  9  1  0  0  0  0
  8 10  1  0  0  0  0
  8 11  1  0  0  0  0
 11 12  1  0  0  0  0
 11 13  1  0  0  0  0
 11 14  1  0  0  0  0
 14 15  1  0  0  0  0
 14 16  1  0  0  0  0
 14 17  1  0  0  0  0
 17 18  1  0  0  0  0
 17 19  1  0  0  0  0
 17 20  1  0  0  0  0
 20 21  1  0  0  0  0
 20 22  1  0  0  0  0
 20 23  1  0  0  0  0
 23 24  1  0  0  0  0
 23 25  1  0  0  0  0
 23 26  1  0  0  0  0
M  END
> <VM2 Rank>
207

> <Conf_Id>
175

> <Probability>
0.00

> <Sum Probability>
100.00

> <Delta G>
6.833

> <G>
55.094

> <E>
21.961

> <-TS>
33.133

> <U+W>
0.499

> <U>
53.726

> <W>
-53.227

> <W(PB)>
-55.471

> <W(SA)>
2.244

> <Valence>
6.198

> <Coulomb>
47.155

> <VdW>
0.373

> <VdW6>
-8.927

> <VdW12>
9.300

> <Bond>
0.233

> <Angle>
1.463

> <Pdih>
4.503

> <Idih>
0.000

> <Tether>
0.000

$$$$
VeraChem MOL file


 26 25  0  0  0  0  0  0  0  0999 V2000     
   20.8798   20.0982   20.1056 C   0  0  0  0  0  0  0  0  0  0  0  0
   21.2276   20.9493   20.7055 H   0  0  0  0  0  0  0  0  0  0  0  0
   21.6193   19.9193   19.3142 H   0  0  0  0  0  0  0  0  0  0  0  0
   19.9345   20.3822   19.6251 H   0  0  0  0  0  0  0  0  0  0  0  0
   20.7013   18.8385   20.9791 C   0  0  0  0  0  0  0  0  0  0  0  0
   21.6698   18.5594   21.4167 H   0  0  0  0  0  0  0  0  0  0  0  0
   20.3868   17.9971   20.3456 H   0  0  0  0  0  0  0  0  0  0  0  0
   19.6620   19.0629   22.0994 C   0  0  0  0  0  0  0  0  0  0  0  0
   19.9590   19.9245   22.7085 H   0  0  0  0  0  0  0  0  0  0  0  0
   18.6955   19.3289   21.6492 H   0  0  0  0  0  0  0  0  0  0  0  0
   19.4802   17.8008   22.9784 C   0  0  0  0  0  0  0  0  0  0  0  0
   20.4492   17.4095   23.3156 H   0  0  0  0  0  0  0  0  0  0  0  0
   19.0447   17.0116   22.3499 H   0  0  0  0  0  0  0  0  0  0  0  0
   18.5460   18.0337   24.1932 C   0  0  0  0  0  0  0  0  0  0  0  0
   17.8098   18.8155   23.9604 H   0  0  0  0  0  0  0  0  0  0  0  0
   17.9606   17.1174   24.3524 H   0  0  0  0  0  0  0  0  0  0  0  0
   19.2640   18.3632   25.5295 C   0  0  0  0  0  0  0  0  0  0  0  0
   19.9040   17.5237   25.8319 H   0  0  0  0  0  0  0  0  0  0  0  0
   18.4962   18.4493   26.3099 H   0  0  0  0  0  0  0  0  0  0  0  0
   20.0827   19.6700   25.5317 C   0  0  0  0  0  0  0  0  0  0  0  0
   19.5392   20.4501   24.9921 H   0  0  0  0  0  0  0  0  0  0  0  0
   20.2198   20.0037   26.5639 H   0  0  0  0  0  0  0  0  0  0  0  0
   21.4650   19.5318   24.9240 N   0  3  0  0  0  0  0  0  0  0  0  0
   21.9766   20.4210   24.9353 H   0  0  0  0  0  0  0  0  0  0  0  0
   21.4131   19.2187   23.9492 H   0  0  0  0  0  0  0  0  0  0  0  0
   22.0368   18.8508   25.4346 H   0  0  0  0  0  0  0  0  0  0  0  0
  1  2  1  0  0  0  0
  1  3  1  0  0  0  0
  1  4  1  0  0  0  0
  1  5  1  0  0  0  0
  5  6  1  0  0  0  0
  5  7  1  0  0  0  0
  5  8  1  0  0  0  0
  8  9  1  0  0  0  0
  8 10  1  0  0  0  0
  8 11  1  0  0  0  0
 11 12  1  0  0  0  0
 11 13  1  0  0  0  0
 11 14  1  0  0  0  0
 14 15  1  0  0  0  0
 14 16  1  0  0  0  0
 14 17  1  0  0  0  0
 17 18  1  0  0  0  0
 17 19  1  0  0  0  0
 17 20  1  0  0  0  0
 20 21  1  0  0  0  0
 20 22  1  0  0  0  0
 20 23  1  0  0  0  0
 23 24  1  0  0  0  0
 23 25  1  0  0  0  0
 23 26  1  0  0  0  0
M  END
> <VM2 Rank>
208

> <Conf_Id>
1498

> <Probability>
0.00

> <Sum Probability>
100.00

> <Delta G>
6.834

> <G>
55.095

> <E>
21.962

> <-TS>
33.133

> <U+W>
0.500

> <U>
53.726

> <W>
-53.226

> <W(PB)>
-55.465

> <W(SA)>
2.239

> <Valence>
6.198

> <Coulomb>
47.155

> <VdW>
0.373

> <VdW6>
-8.927

> <VdW12>
9.300

> <Bond>
0.233

> <Angle>
1.463

> <Pdih>
4.503

> <Idih>
0.000

> <Tether>
0.000

$$$$
VeraChem MOL file


 26 25  0  0  0  0  0  0  0  0999 V2000     
   19.9908   20.2740   20.0663 C   0  0  0  0  0  0  0  0  0  0  0  0
   19.6392   21.1534   20.6215 H   0  0  0  0  0  0  0  0  0  0  0  0
   21.0354   20.4474   19.7766 H   0  0  0  0  0  0  0  0  0  0  0  0
   19.3952   20.1955   19.1476 H   0  0  0  0  0  0  0  0  0  0  0  0
   19.8552   18.9918   20.9147 C   0  0  0  0  0  0  0  0  0  0  0  0
   20.1827   18.1274   20.3202 H   0  0  0  0  0  0  0  0  0  0  0  0
   18.7954   18.8287   21.1504 H   0  0  0  0  0  0  0  0  0  0  0  0
   20.6900   19.0777   22.2146 C   0  0  0  0  0  0  0  0  0  0  0  0
   21.7396   19.2595   21.9449 H   0  0  0  0  0  0  0  0  0  0  0  0
   20.3622   19.9474   22.7964 H   0  0  0  0  0  0  0  0  0  0  0  0
   20.6153   17.7858   23.0702 C   0  0  0  0  0  0  0  0  0  0  0  0
   21.4463   17.7581   23.7874 H   0  0  0  0  0  0  0  0  0  0  0  0
   20.7803   16.9246   22.4079 H   0  0  0  0  0  0  0  0  0  0  0  0
   19.2711   17.5894   23.8214 C   0  0  0  0  0  0  0  0  0  0  0  0
   18.4462   18.0599   23.2715 H   0  0  0  0  0  0  0  0  0  0  0  0
   19.0417   16.5149   23.8291 H   0  0  0  0  0  0  0  0  0  0  0  0
   19.2578   18.0763   25.2949 C   0  0  0  0  0  0  0  0  0  0  0  0
   19.9960   17.5182   25.8860 H   0  0  0  0  0  0  0  0  0  0  0  0
   18.2789   17.8221   25.7226 H   0  0  0  0  0  0  0  0  0  0  0  0
   19.4723   19.5915   25.4848 C   0  0  0  0  0  0  0  0  0  0  0  0
   18.9423   20.1426   24.7034 H   0  0  0  0  0  0  0  0  0  0  0  0
   19.0602   19.8922   26.4519 H   0  0  0  0  0  0  0  0  0  0  0  0
   20.9286   20.0125   25.4742 N   0  3  0  0  0  0  0  0  0  0  0  0
   21.3853   19.7552   24.5938 H   0  0  0  0  0  0  0  0  0  0  0  0
   21.4566   19.5686   26.2328 H   0  0  0  0  0  0  0  0  0  0  0  0
   21.0331   21.0264   25.5903 H   0  0  0  0  0  0  0  0  0  0  0  0
  1  2  1  0  0  0  0
  1  3  1  0  0  0  0
  1  4  1  0  0  0  0
  1  5  1  0  0  0  0
  5  6  1  0  0  0  0
  5  7  1  0  0  0  0
  5  8  1  0  0  0  0
  8  9  1  0  0  0  0
  8 10  1  0  0  0  0
  8 11  1  0  0  0  0
 11 12  1  0  0  0  0
 11 13  1  0  0  0  0
 11 14  1  0  0  0  0
 14 15  1  0  0  0  0
 14 16  1  0  0  0  0
 14 17  1  0  0  0  0
 17 18  1  0  0  0  0
 17 19  1  0  0  0  0
 17 20  1  0  0  0  0
 20 21  1  0  0  0  0
 20 22  1  0  0  0  0
 20 23  1  0  0  0  0
 23 24  1  0  0  0  0
 23 25  1  0  0  0  0
 23 26  1  0  0  0  0
M  END
> <VM2 Rank>
209

> <Conf_Id>
533

> <Probability>
0.00

> <Sum Probability>
100.00

> <Delta G>
6.868

> <G>
55.129

> <E>
21.976

> <-TS>
33.153

> <U+W>
0.514

> <U>
54.574

> <W>
-54.060

> <W(PB)>
-56.307

> <W(SA)>
2.247

> <Valence>
6.966

> <Coulomb>
47.041

> <VdW>
0.567

> <VdW6>
-9.189

> <VdW12>
9.756

> <Bond>
0.281

> <Angle>
1.617

> <Pdih>
5.069

> <Idih>
0.000

> <Tether>
0.000

$$$$
VeraChem MOL file


 26 25  0  0  0  0  0  0  0  0999 V2000     
   18.9453   17.9809   20.8857 C   0  0  0  0  0  0  0  0  0  0  0  0
   18.7093   16.9164   20.7596 H   0  0  0  0  0  0  0  0  0  0  0  0
   18.3214   18.3669   21.6989 H   0  0  0  0  0  0  0  0  0  0  0  0
   18.6518   18.4984   19.9632 H   0  0  0  0  0  0  0  0  0  0  0  0
   20.4540   18.1719   21.1669 C   0  0  0  0  0  0  0  0  0  0  0  0
   21.0088   17.7680   20.3085 H   0  0  0  0  0  0  0  0  0  0  0  0
   20.7677   17.5731   22.0325 H   0  0  0  0  0  0  0  0  0  0  0  0
   20.8592   19.6549   21.3601 C   0  0  0  0  0  0  0  0  0  0  0  0
   21.8602   19.7876   20.9267 H   0  0  0  0  0  0  0  0  0  0  0  0
   20.1987   20.3083   20.7736 H   0  0  0  0  0  0  0  0  0  0  0  0
   20.9272   20.1472   22.8311 C   0  0  0  0  0  0  0  0  0  0  0  0
   21.3348   21.1674   22.8114 H   0  0  0  0  0  0  0  0  0  0  0  0
   21.6628   19.5530   23.3882 H   0  0  0  0  0  0  0  0  0  0  0  0
   19.5710   20.1976   23.5846 C   0  0  0  0  0  0  0  0  0  0  0  0
   19.5795   21.0617   24.2636 H   0  0  0  0  0  0  0  0  0  0  0  0
   18.7588   20.3948   22.8723 H   0  0  0  0  0  0  0  0  0  0  0  0
   19.2482   18.9352   24.4234 C   0  0  0  0  0  0  0  0  0  0  0  0
   19.2758   18.0370   23.7969 H   0  0  0  0  0  0  0  0  0  0  0  0
   18.2216   19.0181   24.8041 H   0  0  0  0  0  0  0  0  0  0  0  0
   20.2070   18.7569   25.6158 C   0  0  0  0  0  0  0  0  0  0  0  0
   21.2310   18.6332   25.2549 H   0  0  0  0  0  0  0  0  0  0  0  0
   20.1715   19.6453   26.2520 H   0  0  0  0  0  0  0  0  0  0  0  0
   19.8690   17.5544   26.4734 N   0  3  0  0  0  0  0  0  0  0  0  0
   18.9260   17.6213   26.8700 H   0  0  0  0  0  0  0  0  0  0  0  0
   20.5178   17.4546   27.2617 H   0  0  0  0  0  0  0  0  0  0  0  0
   19.9110   16.6802   25.9396 H   0  0  0  0  0  0  0  0  0  0  0  0
  1  2  1  0  0  0  0
  1  3  1  0  0  0  0
  1  4  1  0  0  0  0
  1  5  1  0  0  0  0
  5  6  1  0  0  0  0
  5  7  1  0  0  0  0
  5  8  1  0  0  0  0
  8  9  1  0  0  0  0
  8 10  1  0  0  0  0
  8 11  1  0  0  0  0
 11 12  1  0  0  0  0
 11 13  1  0  0  0  0
 11 14  1  0  0  0  0
 14 15  1  0  0  0  0
 14 16  1  0  0  0  0
 14 17  1  0  0  0  0
 17 18  1  0  0  0  0
 17 19  1  0  0  0  0
 17 20  1  0  0  0  0
 20 21  1  0  0  0  0
 20 22  1  0  0  0  0
 20 23  1  0  0  0  0
 23 24  1  0  0  0  0
 23 25  1  0  0  0  0
 23 26  1  0  0  0  0
M  END
> <VM2 Rank>
210

> <Conf_Id>
160

> <Probability>
0.00

> <Sum Probability>
100.00

> <Delta G>
6.899

> <G>
55.160

> <E>
21.890

> <-TS>
33.270

> <U+W>
0.428

> <U>
54.562

> <W>
-54.134

> <W(PB)>
-56.363

> <W(SA)>
2.229

> <Valence>
8.177

> <Coulomb>
45.812

> <VdW>
0.572

> <VdW6>
-9.083

> <VdW12>
9.655

> <Bond>
0.296

> <Angle>
2.095

> <Pdih>
5.787

> <Idih>
0.000

> <Tether>
0.000

$$$$
VeraChem MOL file


 26 25  0  0  0  0  0  0  0  0999 V2000     
   18.9284   19.5729   20.0308 C   0  0  0  0  0  0  0  0  0  0  0  0
   18.2325   20.2252   20.5745 H   0  0  0  0  0  0  0  0  0  0  0  0
   19.2768   20.1174   19.1436 H   0  0  0  0  0  0  0  0  0  0  0  0
   18.3728   18.6904   19.6877 H   0  0  0  0  0  0  0  0  0  0  0  0
   20.1201   19.1666   20.9235 C   0  0  0  0  0  0  0  0  0  0  0  0
   20.6745   20.0687   21.2132 H   0  0  0  0  0  0  0  0  0  0  0  0
   20.8133   18.5436   20.3412 H   0  0  0  0  0  0  0  0  0  0  0  0
   19.6532   18.3936   22.1799 C   0  0  0  0  0  0  0  0  0  0  0  0
   18.9557   19.0193   22.7494 H   0  0  0  0  0  0  0  0  0  0  0  0
   19.0871   17.5092   21.8563 H   0  0  0  0  0  0  0  0  0  0  0  0
   20.8295   17.9272   23.0774 C   0  0  0  0  0  0  0  0  0  0  0  0
   21.5868   17.4569   22.4348 H   0  0  0  0  0  0  0  0  0  0  0  0
   20.4957   17.1308   23.7556 H   0  0  0  0  0  0  0  0  0  0  0  0
   21.5023   19.0617   23.8959 C   0  0  0  0  0  0  0  0  0  0  0  0
   22.5791   18.8490   23.9474 H   0  0  0  0  0  0  0  0  0  0  0  0
   21.4192   20.0217   23.3708 H   0  0  0  0  0  0  0  0  0  0  0  0
   20.9916   19.2205   25.3528 C   0  0  0  0  0  0  0  0  0  0  0  0
   21.5892   20.0066   25.8332 H   0  0  0  0  0  0  0  0  0  0  0  0
   21.1873   18.3044   25.9258 H   0  0  0  0  0  0  0  0  0  0  0  0
   19.5067   19.6142   25.4859 C   0  0  0  0  0  0  0  0  0  0  0  0
   19.3470   20.0815   26.4614 H   0  0  0  0  0  0  0  0  0  0  0  0
   19.2446   20.3420   24.7134 H   0  0  0  0  0  0  0  0  0  0  0  0
   18.5492   18.4423   25.3947 N   0  3  0  0  0  0  0  0  0  0  0  0
   17.5713   18.7420   25.4746 H   0  0  0  0  0  0  0  0  0  0  0  0
   18.7146   17.7592   26.1412 H   0  0  0  0  0  0  0  0  0  0  0  0
   18.6474   17.9485   24.5023 H   0  0  0  0  0  0  0  0  0  0  0  0
  1  2  1  0  0  0  0
  1  3  1  0  0  0  0
  1  4  1  0  0  0  0
  1  5  1  0  0  0  0
  5  6  1  0  0  0  0
  5  7  1  0  0  0  0
  5  8  1  0  0  0  0
  8  9  1  0  0  0  0
  8 10  1  0  0  0  0
  8 11  1  0  0  0  0
 11 12  1  0  0  0  0
 11 13  1  0  0  0  0
 11 14  1  0  0  0  0
 14 15  1  0  0  0  0
 14 16  1  0  0  0  0
 14 17  1  0  0  0  0
 17 18  1  0  0  0  0
 17 19  1  0  0  0  0
 17 20  1  0  0  0  0
 20 21  1  0  0  0  0
 20 22  1  0  0  0  0
 20 23  1  0  0  0  0
 23 24  1  0  0  0  0
 23 25  1  0  0  0  0
 23 26  1  0  0  0  0
M  END
> <VM2 Rank>
211

> <Conf_Id>
1117

> <Probability>
0.00

> <Sum Probability>
100.00

> <Delta G>
6.958

> <G>
55.219

> <E>
22.066

> <-TS>
33.153

> <U+W>
0.604

> <U>
54.574

> <W>
-53.970

> <W(PB)>
-56.206

> <W(SA)>
2.236

> <Valence>
6.966

> <Coulomb>
47.041

> <VdW>
0.567

> <VdW6>
-9.190

> <VdW12>
9.756

> <Bond>
0.281

> <Angle>
1.617

> <Pdih>
5.069

> <Idih>
0.000

> <Tether>
0.000

$$$$
VeraChem MOL file


 26 25  0  0  0  0  0  0  0  0999 V2000     
   20.1305   17.7706   20.0968 C   0  0  0  0  0  0  0  0  0  0  0  0
   21.1757   17.8123   19.7636 H   0  0  0  0  0  0  0  0  0  0  0  0
   19.7903   16.7307   20.0077 H   0  0  0  0  0  0  0  0  0  0  0  0
   19.5285   18.3821   19.4120 H   0  0  0  0  0  0  0  0  0  0  0  0
   19.9903   18.2669   21.5516 C   0  0  0  0  0  0  0  0  0  0  0  0
   20.5834   17.6225   22.2141 H   0  0  0  0  0  0  0  0  0  0  0  0
   18.9396   18.1703   21.8520 H   0  0  0  0  0  0  0  0  0  0  0  0
   20.4428   19.7371   21.6977 C   0  0  0  0  0  0  0  0  0  0  0  0
   21.4194   19.8568   21.2086 H   0  0  0  0  0  0  0  0  0  0  0  0
   19.7477   20.3865   21.1479 H   0  0  0  0  0  0  0  0  0  0  0  0
   20.5759   20.2427   23.1581 C   0  0  0  0  0  0  0  0  0  0  0  0
   20.9504   21.2743   23.1025 H   0  0  0  0  0  0  0  0  0  0  0  0
   21.3606   19.6896   23.6835 H   0  0  0  0  0  0  0  0  0  0  0  0
   19.2593   20.2737   23.9819 C   0  0  0  0  0  0  0  0  0  0  0  0
   19.3502   21.0689   24.7349 H   0  0  0  0  0  0  0  0  0  0  0  0
   18.4328   20.5852   23.3286 H   0  0  0  0  0  0  0  0  0  0  0  0
   18.8599   18.9702   24.7278 C   0  0  0  0  0  0  0  0  0  0  0  0
   18.6673   18.1452   24.0348 H   0  0  0  0  0  0  0  0  0  0  0  0
   17.8997   19.1606   25.2253 H   0  0  0  0  0  0  0  0  0  0  0  0
   19.8588   18.5232   25.8154 C   0  0  0  0  0  0  0  0  0  0  0  0
   20.3133   19.3991   26.2860 H   0  0  0  0  0  0  0  0  0  0  0  0
   19.3187   17.9668   26.5863 H   0  0  0  0  0  0  0  0  0  0  0  0
   20.9636   17.6148   25.3116 N   0  3  0  0  0  0  0  0  0  0  0  0
   21.6073   17.3478   26.0646 H   0  0  0  0  0  0  0  0  0  0  0  0
   21.5228   18.0638   24.5812 H   0  0  0  0  0  0  0  0  0  0  0  0
   20.5892   16.7456   24.9178 H   0  0  0  0  0  0  0  0  0  0  0  0
  1  2  1  0  0  0  0
  1  3  1  0  0  0  0
  1  4  1  0  0  0  0
  1  5  1  0  0  0  0
  5  6  1  0  0  0  0
  5  7  1  0  0  0  0
  5  8  1  0  0  0  0
  8  9  1  0  0  0  0
  8 10  1  0  0  0  0
  8 11  1  0  0  0  0
 11 12  1  0  0  0  0
 11 13  1  0  0  0  0
 11 14  1  0  0  0  0
 14 15  1  0  0  0  0
 14 16  1  0  0  0  0
 14 17  1  0  0  0  0
 17 18  1  0  0  0  0
 17 19  1  0  0  0  0
 17 20  1  0  0  0  0
 20 21  1  0  0  0  0
 20 22  1  0  0  0  0
 20 23  1  0  0  0  0
 23 24  1  0  0  0  0
 23 25  1  0  0  0  0
 23 26  1  0  0  0  0
M  END
> <VM2 Rank>
212

> <Conf_Id>
1375

> <Probability>
0.00

> <Sum Probability>
100.00

> <Delta G>
7.021

> <G>
55.282

> <E>
22.651

> <-TS>
32.630

> <U+W>
1.190

> <U>
55.380

> <W>
-54.191

> <W(PB)>
-56.404

> <W(SA)>
2.214

> <Valence>
7.389

> <Coulomb>
47.631

> <VdW>
0.360

> <VdW6>
-9.044

> <VdW12>
9.405

> <Bond>
0.310

> <Angle>
2.684

> <Pdih>
4.395

> <Idih>
0.000

> <Tether>
0.000

$$$$
VeraChem MOL file


 26 25  0  0  0  0  0  0  0  0999 V2000     
   19.4859   18.4141   20.1272 C   0  0  0  0  0  0  0  0  0  0  0  0
   18.7549   17.7095   19.7100 H   0  0  0  0  0  0  0  0  0  0  0  0
   19.5685   19.2601   19.4327 H   0  0  0  0  0  0  0  0  0  0  0  0
   20.4561   17.9037   20.1597 H   0  0  0  0  0  0  0  0  0  0  0  0
   19.0408   18.8884   21.5296 C   0  0  0  0  0  0  0  0  0  0  0  0
   18.9480   18.0205   22.1940 H   0  0  0  0  0  0  0  0  0  0  0  0
   18.0351   19.3238   21.4482 H   0  0  0  0  0  0  0  0  0  0  0  0
   19.9932   19.9475   22.1416 C   0  0  0  0  0  0  0  0  0  0  0  0
   20.1691   20.7272   21.3877 H   0  0  0  0  0  0  0  0  0  0  0  0
   19.4983   20.4608   22.9765 H   0  0  0  0  0  0  0  0  0  0  0  0
   21.3619   19.3857   22.6103 C   0  0  0  0  0  0  0  0  0  0  0  0
   22.1310   20.1332   22.3716 H   0  0  0  0  0  0  0  0  0  0  0  0
   21.6354   18.4940   22.0324 H   0  0  0  0  0  0  0  0  0  0  0  0
   21.4728   19.0783   24.1279 C   0  0  0  0  0  0  0  0  0  0  0  0
   22.5132   18.7848   24.3250 H   0  0  0  0  0  0  0  0  0  0  0  0
   21.3159   19.9967   24.7082 H   0  0  0  0  0  0  0  0  0  0  0  0
   20.5561   17.9400   24.6488 C   0  0  0  0  0  0  0  0  0  0  0  0
   21.0078   17.5048   25.5502 H   0  0  0  0  0  0  0  0  0  0  0  0
   20.5205   17.1283   23.9104 H   0  0  0  0  0  0  0  0  0  0  0  0
   19.1205   18.3832   25.0000 C   0  0  0  0  0  0  0  0  0  0  0  0
   18.6472   18.8501   24.1343 H   0  0  0  0  0  0  0  0  0  0  0  0
   18.5302   17.5053   25.2761 H   0  0  0  0  0  0  0  0  0  0  0  0
   19.0497   19.3619   26.1557 N   0  3  0  0  0  0  0  0  0  0  0  0
   18.0824   19.6245   26.3740 H   0  0  0  0  0  0  0  0  0  0  0  0
   19.5579   20.2278   25.9521 H   0  0  0  0  0  0  0  0  0  0  0  0
   19.4531   18.9683   27.0121 H   0  0  0  0  0  0  0  0  0  0  0  0
  1  2  1  0  0  0  0
  1  3  1  0  0  0  0
  1  4  1  0  0  0  0
  1  5  1  0  0  0  0
  5  6  1  0  0  0  0
  5  7  1  0  0  0  0
  5  8  1  0  0  0  0
  8  9  1  0  0  0  0
  8 10  1  0  0  0  0
  8 11  1  0  0  0  0
 11 12  1  0  0  0  0
 11 13  1  0  0  0  0
 11 14  1  0  0  0  0
 14 15  1  0  0  0  0
 14 16  1  0  0  0  0
 14 17  1  0  0  0  0
 17 18  1  0  0  0  0
 17 19  1  0  0  0  0
 17 20  1  0  0  0  0
 20 21  1  0  0  0  0
 20 22  1  0  0  0  0
 20 23  1  0  0  0  0
 23 24  1  0  0  0  0
 23 25  1  0  0  0  0
 23 26  1  0  0  0  0
M  END
> <VM2 Rank>
213

> <Conf_Id>
1022

> <Probability>
0.00

> <Sum Probability>
100.00

> <Delta G>
7.038

> <G>
55.299

> <E>
21.914

> <-TS>
33.385

> <U+W>
0.452

> <U>
54.879

> <W>
-54.427

> <W(PB)>
-56.642

> <W(SA)>
2.215

> <Valence>
7.952

> <Coulomb>
46.381

> <VdW>
0.547

> <VdW6>
-9.878

> <VdW12>
10.425

> <Bond>
0.318

> <Angle>
2.064

> <Pdih>
5.570

> <Idih>
0.000

> <Tether>
0.000

$$$$
VeraChem MOL file


 26 25  0  0  0  0  0  0  0  0999 V2000     
   18.3478   18.7984   21.5305 C   0  0  0  0  0  0  0  0  0  0  0  0
   18.3419   19.0309   22.6000 H   0  0  0  0  0  0  0  0  0  0  0  0
   17.9831   19.6832   20.9927 H   0  0  0  0  0  0  0  0  0  0  0  0
   17.6299   17.9858   21.3602 H   0  0  0  0  0  0  0  0  0  0  0  0
   19.7540   18.3928   21.0312 C   0  0  0  0  0  0  0  0  0  0  0  0
   19.6803   18.1838   19.9548 H   0  0  0  0  0  0  0  0  0  0  0  0
   20.0757   17.4511   21.4959 H   0  0  0  0  0  0  0  0  0  0  0  0
   20.8228   19.4940   21.2458 C   0  0  0  0  0  0  0  0  0  0  0  0
   21.5185   19.4552   20.3961 H   0  0  0  0  0  0  0  0  0  0  0  0
   20.3579   20.4883   21.1966 H   0  0  0  0  0  0  0  0  0  0  0  0
   21.6717   19.3662   22.5397 C   0  0  0  0  0  0  0  0  0  0  0  0
   22.4500   20.1405   22.4942 H   0  0  0  0  0  0  0  0  0  0  0  0
   22.2124   18.4098   22.5421 H   0  0  0  0  0  0  0  0  0  0  0  0
   20.8995   19.5510   23.8712 C   0  0  0  0  0  0  0  0  0  0  0  0
   21.5645   20.0522   24.5883 H   0  0  0  0  0  0  0  0  0  0  0  0
   20.0532   20.2331   23.7200 H   0  0  0  0  0  0  0  0  0  0  0  0
   20.4380   18.2142   24.5059 C   0  0  0  0  0  0  0  0  0  0  0  0
   21.3139   17.5723   24.6682 H   0  0  0  0  0  0  0  0  0  0  0  0
   19.7762   17.6638   23.8282 H   0  0  0  0  0  0  0  0  0  0  0  0
   19.7295   18.4145   25.8593 C   0  0  0  0  0  0  0  0  0  0  0  0
   19.5175   17.4391   26.3056 H   0  0  0  0  0  0  0  0  0  0  0  0
   20.3849   18.9652   26.5394 H   0  0  0  0  0  0  0  0  0  0  0  0
   18.4177   19.1678   25.7574 N   0  3  0  0  0  0  0  0  0  0  0  0
   17.9722   19.2788   26.6748 H   0  0  0  0  0  0  0  0  0  0  0  0
   17.7454   18.6819   25.1554 H   0  0  0  0  0  0  0  0  0  0  0  0
   18.5493   20.1082   25.3726 H   0  0  0  0  0  0  0  0  0  0  0  0
  1  2  1  0  0  0  0
  1  3  1  0  0  0  0
  1  4  1  0  0  0  0
  1  5  1  0  0  0  0
  5  6  1  0  0  0  0
  5  7  1  0  0  0  0
  5  8  1  0  0  0  0
  8  9  1  0  0  0  0
  8 10  1  0  0  0  0
  8 11  1  0  0  0  0
 11 12  1  0  0  0  0
 11 13  1  0  0  0  0
 11 14  1  0  0  0  0
 14 15  1  0  0  0  0
 14 16  1  0  0  0  0
 14 17  1  0  0  0  0
 17 18  1  0  0  0  0
 17 19  1  0  0  0  0
 17 20  1  0  0  0  0
 20 21  1  0  0  0  0
 20 22  1  0  0  0  0
 20 23  1  0  0  0  0
 23 24  1  0  0  0  0
 23 25  1  0  0  0  0
 23 26  1  0  0  0  0
M  END
> <VM2 Rank>
214

> <Conf_Id>
1310

> <Probability>
0.00

> <Sum Probability>
100.00

> <Delta G>
7.104

> <G>
55.365

> <E>
21.953

> <-TS>
33.412

> <U+W>
0.491

> <U>
54.898

> <W>
-54.407

> <W(PB)>
-56.569

> <W(SA)>
2.162

> <Valence>
7.854

> <Coulomb>
46.637

> <VdW>
0.407

> <VdW6>
-9.363

> <VdW12>
9.769

> <Bond>
0.292

> <Angle>
1.989

> <Pdih>
5.574

> <Idih>
0.000

> <Tether>
0.000

$$$$
VeraChem MOL file


 26 25  0  0  0  0  0  0  0  0999 V2000     
   19.9864   19.0382   19.9135 C   0  0  0  0  0  0  0  0  0  0  0  0
   20.5840   18.1854   19.5663 H   0  0  0  0  0  0  0  0  0  0  0  0
   18.9711   18.6836   20.1301 H   0  0  0  0  0  0  0  0  0  0  0  0
   19.9138   19.7563   19.0865 H   0  0  0  0  0  0  0  0  0  0  0  0
   20.6308   19.7027   21.1510 C   0  0  0  0  0  0  0  0  0  0  0  0
   19.9947   20.5264   21.4998 H   0  0  0  0  0  0  0  0  0  0  0  0
   21.5783   20.1678   20.8447 H   0  0  0  0  0  0  0  0  0  0  0  0
   20.9248   18.7134   22.3090 C   0  0  0  0  0  0  0  0  0  0  0  0
   21.6487   17.9680   21.9518 H   0  0  0  0  0  0  0  0  0  0  0  0
   21.4324   19.2647   23.1085 H   0  0  0  0  0  0  0  0  0  0  0  0
   19.6865   17.9643   22.8770 C   0  0  0  0  0  0  0  0  0  0  0  0
   20.0134   17.1663   23.5566 H   0  0  0  0  0  0  0  0  0  0  0  0
   19.1855   17.4385   22.0542 H   0  0  0  0  0  0  0  0  0  0  0  0
   18.6479   18.8652   23.5983 C   0  0  0  0  0  0  0  0  0  0  0  0
   18.6379   19.8729   23.1658 H   0  0  0  0  0  0  0  0  0  0  0  0
   17.6488   18.4546   23.3971 H   0  0  0  0  0  0  0  0  0  0  0  0
   18.8044   18.9614   25.1392 C   0  0  0  0  0  0  0  0  0  0  0  0
   18.6611   17.9738   25.5975 H   0  0  0  0  0  0  0  0  0  0  0  0
   17.9870   19.5882   25.5197 H   0  0  0  0  0  0  0  0  0  0  0  0
   20.1320   19.5762   25.6251 C   0  0  0  0  0  0  0  0  0  0  0  0
   20.4345   20.3855   24.9551 H   0  0  0  0  0  0  0  0  0  0  0  0
   19.9865   19.9975   26.6235 H   0  0  0  0  0  0  0  0  0  0  0  0
   21.2682   18.5776   25.7280 N   0  3  0  0  0  0  0  0  0  0  0  0
   21.0563   17.8306   26.3975 H   0  0  0  0  0  0  0  0  0  0  0  0
   22.1386   19.0216   26.0410 H   0  0  0  0  0  0  0  0  0  0  0  0
   21.4580   18.1322   24.8251 H   0  0  0  0  0  0  0  0  0  0  0  0
  1  2  1  0  0  0  0
  1  3  1  0  0  0  0
  1  4  1  0  0  0  0
  1  5  1  0  0  0  0
  5  6  1  0  0  0  0
  5  7  1  0  0  0  0
  5  8  1  0  0  0  0
  8  9  1  0  0  0  0
  8 10  1  0  0  0  0
  8 11  1  0  0  0  0
 11 12  1  0  0  0  0
 11 13  1  0  0  0  0
 11 14  1  0  0  0  0
 14 15  1  0  0  0  0
 14 16  1  0  0  0  0
 14 17  1  0  0  0  0
 17 18  1  0  0  0  0
 17 19  1  0  0  0  0
 17 20  1  0  0  0  0
 20 21  1  0  0  0  0
 20 22  1  0  0  0  0
 20 23  1  0  0  0  0
 23 24  1  0  0  0  0
 23 25  1  0  0  0  0
 23 26  1  0  0  0  0
M  END
> <VM2 Rank>
215

> <Conf_Id>
248

> <Probability>
0.00

> <Sum Probability>
100.00

> <Delta G>
7.350

> <G>
55.611

> <E>
22.531

> <-TS>
33.080

> <U+W>
1.069

> <U>
55.284

> <W>
-54.215

> <W(PB)>
-56.410

> <W(SA)>
2.195

> <Valence>
7.530

> <Coulomb>
47.065

> <VdW>
0.689

> <VdW6>
-9.872

> <VdW12>
10.561

> <Bond>
0.348

> <Angle>
2.259

> <Pdih>
4.923

> <Idih>
0.000

> <Tether>
0.000

$$$$
VeraChem MOL file


 26 25  0  0  0  0  0  0  0  0999 V2000     
   21.3729   19.1778   20.2844 C   0  0  0  0  0  0  0  0  0  0  0  0
   21.1348   20.2367   20.1195 H   0  0  0  0  0  0  0  0  0  0  0  0
   22.4643   19.0675   20.2428 H   0  0  0  0  0  0  0  0  0  0  0  0
   20.9444   18.5981   19.4564 H   0  0  0  0  0  0  0  0  0  0  0  0
   20.8272   18.6921   21.6438 C   0  0  0  0  0  0  0  0  0  0  0  0
   21.3111   19.2658   22.4411 H   0  0  0  0  0  0  0  0  0  0  0  0
   21.1080   17.6398   21.7887 H   0  0  0  0  0  0  0  0  0  0  0  0
   19.2891   18.8381   21.7229 C   0  0  0  0  0  0  0  0  0  0  0  0
   18.9990   19.8877   21.5774 H   0  0  0  0  0  0  0  0  0  0  0  0
   18.8544   18.2865   20.8777 H   0  0  0  0  0  0  0  0  0  0  0  0
   18.6610   18.2869   23.0305 C   0  0  0  0  0  0  0  0  0  0  0  0
   19.2273   17.4282   23.4081 H   0  0  0  0  0  0  0  0  0  0  0  0
   17.6746   17.8784   22.7701 H   0  0  0  0  0  0  0  0  0  0  0  0
   18.4239   19.3445   24.1424 C   0  0  0  0  0  0  0  0  0  0  0  0
   17.8026   20.1489   23.7250 H   0  0  0  0  0  0  0  0  0  0  0  0
   17.8150   18.8881   24.9351 H   0  0  0  0  0  0  0  0  0  0  0  0
   19.6775   19.9839   24.7946 C   0  0  0  0  0  0  0  0  0  0  0  0
   19.3313   20.8205   25.4160 H   0  0  0  0  0  0  0  0  0  0  0  0
   20.3319   20.4371   24.0419 H   0  0  0  0  0  0  0  0  0  0  0  0
   20.4704   19.0357   25.7193 C   0  0  0  0  0  0  0  0  0  0  0  0
   21.1175   19.6315   26.3688 H   0  0  0  0  0  0  0  0  0  0  0  0
   19.7763   18.4794   26.3549 H   0  0  0  0  0  0  0  0  0  0  0  0
   21.3589   18.0399   25.0029 N   0  3  0  0  0  0  0  0  0  0  0  0
   21.8420   17.4205   25.6629 H   0  0  0  0  0  0  0  0  0  0  0  0
   22.0820   18.5082   24.4481 H   0  0  0  0  0  0  0  0  0  0  0  0
   20.8205   17.4453   24.3672 H   0  0  0  0  0  0  0  0  0  0  0  0
  1  2  1  0  0  0  0
  1  3  1  0  0  0  0
  1  4  1  0  0  0  0
  1  5  1  0  0  0  0
  5  6  1  0  0  0  0
  5  7  1  0  0  0  0
  5  8  1  0  0  0  0
  8  9  1  0  0  0  0
  8 10  1  0  0  0  0
  8 11  1  0  0  0  0
 11 12  1  0  0  0  0
 11 13  1  0  0  0  0
 11 14  1  0  0  0  0
 14 15  1  0  0  0  0
 14 16  1  0  0  0  0
 14 17  1  0  0  0  0
 17 18  1  0  0  0  0
 17 19  1  0  0  0  0
 17 20  1  0  0  0  0
 20 21  1  0  0  0  0
 20 22  1  0  0  0  0
 20 23  1  0  0  0  0
 23 24  1  0  0  0  0
 23 25  1  0  0  0  0
 23 26  1  0  0  0  0
M  END
> <VM2 Rank>
216

> <Conf_Id>
527

> <Probability>
0.00

> <Sum Probability>
100.00

> <Delta G>
7.697

> <G>
55.958

> <E>
22.962

> <-TS>
32.996

> <U+W>
1.500

> <U>
55.487

> <W>
-53.987

> <W(PB)>
-56.176

> <W(SA)>
2.189

> <Valence>
7.292

> <Coulomb>
48.136

> <VdW>
0.060

> <VdW6>
-9.397

> <VdW12>
9.457

> <Bond>
0.292

> <Angle>
2.593

> <Pdih>
4.408

> <Idih>
0.000

> <Tether>
0.000

$$$$
VeraChem MOL file


 26 25  0  0  0  0  0  0  0  0999 V2000     
   18.8602   17.8535   20.9307 C   0  0  0  0  0  0  0  0  0  0  0  0
   17.9569   18.0291   21.5285 H   0  0  0  0  0  0  0  0  0  0  0  0
   18.5384   17.4782   19.9505 H   0  0  0  0  0  0  0  0  0  0  0  0
   19.4474   17.0589   21.4069 H   0  0  0  0  0  0  0  0  0  0  0  0
   19.6805   19.1529   20.7620 C   0  0  0  0  0  0  0  0  0  0  0  0
   19.0734   19.8816   20.2067 H   0  0  0  0  0  0  0  0  0  0  0  0
   20.5656   18.9554   20.1410 H   0  0  0  0  0  0  0  0  0  0  0  0
   20.1144   19.7884   22.1042 C   0  0  0  0  0  0  0  0  0  0  0  0
   20.5244   20.7867   21.8972 H   0  0  0  0  0  0  0  0  0  0  0  0
   19.2325   19.9582   22.7326 H   0  0  0  0  0  0  0  0  0  0  0  0
   21.1930   18.9641   22.8547 C   0  0  0  0  0  0  0  0  0  0  0  0
   22.0987   18.9511   22.2327 H   0  0  0  0  0  0  0  0  0  0  0  0
   20.8988   17.9136   22.9669 H   0  0  0  0  0  0  0  0  0  0  0  0
   21.5569   19.5594   24.2390 C   0  0  0  0  0  0  0  0  0  0  0  0
   22.6346   19.4162   24.3985 H   0  0  0  0  0  0  0  0  0  0  0  0
   21.4026   20.6473   24.2363 H   0  0  0  0  0  0  0  0  0  0  0  0
   20.8202   18.9234   25.4484 C   0  0  0  0  0  0  0  0  0  0  0  0
   21.2009   19.3997   26.3616 H   0  0  0  0  0  0  0  0  0  0  0  0
   21.0828   17.8606   25.5343 H   0  0  0  0  0  0  0  0  0  0  0  0
   19.2863   19.0815   25.4408 C   0  0  0  0  0  0  0  0  0  0  0  0
   18.9075   18.9448   26.4573 H   0  0  0  0  0  0  0  0  0  0  0  0
   19.0184   20.0887   25.1109 H   0  0  0  0  0  0  0  0  0  0  0  0
   18.5696   18.0759   24.5612 N   0  3  0  0  0  0  0  0  0  0  0  0
   17.5535   18.2184   24.5713 H   0  0  0  0  0  0  0  0  0  0  0  0
   18.7405   17.1135   24.8714 H   0  0  0  0  0  0  0  0  0  0  0  0
   18.8846   18.1469   23.5873 H   0  0  0  0  0  0  0  0  0  0  0  0
  1  2  1  0  0  0  0
  1  3  1  0  0  0  0
  1  4  1  0  0  0  0
  1  5  1  0  0  0  0
  5  6  1  0  0  0  0
  5  7  1  0  0  0  0
  5  8  1  0  0  0  0
  8  9  1  0  0  0  0
  8 10  1  0  0  0  0
  8 11  1  0  0  0  0
 11 12  1  0  0  0  0
 11 13  1  0  0  0  0
 11 14  1  0  0  0  0
 14 15  1  0  0  0  0
 14 16  1  0  0  0  0
 14 17  1  0  0  0  0
 17 18  1  0  0  0  0
 17 19  1  0  0  0  0
 17 20  1  0  0  0  0
 20 21  1  0  0  0  0
 20 22  1  0  0  0  0
 20 23  1  0  0  0  0
 23 24  1  0  0  0  0
 23 25  1  0  0  0  0
 23 26  1  0  0  0  0
M  END
> <VM2 Rank>
217

> <Conf_Id>
822

> <Probability>
0.00

> <Sum Probability>
100.00

> <Delta G>
8.484

> <G>
56.745

> <E>
23.153

> <-TS>
33.591

> <U+W>
1.692

> <U>
54.447

> <W>
-52.755

> <W(PB)>
-54.933

> <W(SA)>
2.178

> <Valence>
6.776

> <Coulomb>
47.396

> <VdW>
0.275

> <VdW6>
-10.114

> <VdW12>
10.389

> <Bond>
0.270

> <Angle>
1.774

> <Pdih>
4.732

> <Idih>
0.000

> <Tether>
0.000

$$$$
VeraChem MOL file


 26 25  0  0  0  0  0  0  0  0999 V2000     
   19.4713   19.7282   20.4554 C   0  0  0  0  0  0  0  0  0  0  0  0
   19.2788   19.8540   19.3821 H   0  0  0  0  0  0  0  0  0  0  0  0
   18.6118   20.1391   21.0006 H   0  0  0  0  0  0  0  0  0  0  0  0
   20.3581   20.3247   20.7031 H   0  0  0  0  0  0  0  0  0  0  0  0
   19.6837   18.2365   20.7949 C   0  0  0  0  0  0  0  0  0  0  0  0
   20.5616   17.8594   20.2518 H   0  0  0  0  0  0  0  0  0  0  0  0
   18.8244   17.6636   20.4192 H   0  0  0  0  0  0  0  0  0  0  0  0
   19.8457   17.9494   22.3093 C   0  0  0  0  0  0  0  0  0  0  0  0
   18.9334   18.2557   22.8371 H   0  0  0  0  0  0  0  0  0  0  0  0
   19.9197   16.8601   22.4324 H   0  0  0  0  0  0  0  0  0  0  0  0
   21.1013   18.6021   22.9503 C   0  0  0  0  0  0  0  0  0  0  0  0
   21.8758   18.7110   22.1786 H   0  0  0  0  0  0  0  0  0  0  0  0
   21.5380   17.9240   23.6956 H   0  0  0  0  0  0  0  0  0  0  0  0
   20.8402   19.9844   23.6069 C   0  0  0  0  0  0  0  0  0  0  0  0
   21.7359   20.6035   23.4596 H   0  0  0  0  0  0  0  0  0  0  0  0
   20.0291   20.5118   23.0891 H   0  0  0  0  0  0  0  0  0  0  0  0
   20.5448   19.9482   25.1301 C   0  0  0  0  0  0  0  0  0  0  0  0
   20.4734   20.9858   25.4824 H   0  0  0  0  0  0  0  0  0  0  0  0
   21.3920   19.5064   25.6714 H   0  0  0  0  0  0  0  0  0  0  0  0
   19.2384   19.2303   25.5245 C   0  0  0  0  0  0  0  0  0  0  0  0
   18.9373   19.5580   26.5232 H   0  0  0  0  0  0  0  0  0  0  0  0
   18.4423   19.4980   24.8247 H   0  0  0  0  0  0  0  0  0  0  0  0
   19.3555   17.7200   25.5696 N   0  3  0  0  0  0  0  0  0  0  0  0
   18.4647   17.2755   25.8171 H   0  0  0  0  0  0  0  0  0  0  0  0
   20.0461   17.4143   26.2630 H   0  0  0  0  0  0  0  0  0  0  0  0
   19.6467   17.3437   24.6621 H   0  0  0  0  0  0  0  0  0  0  0  0
  1  2  1  0  0  0  0
  1  3  1  0  0  0  0
  1  4  1  0  0  0  0
  1  5  1  0  0  0  0
  5  6  1  0  0  0  0
  5  7  1  0  0  0  0
  5  8  1  0  0  0  0
  8  9  1  0  0  0  0
  8 10  1  0  0  0  0
  8 11  1  0  0  0  0
 11 12  1  0  0  0  0
 11 13  1  0  0  0  0
 11 14  1  0  0  0  0
 14 15  1  0  0  0  0
 14 16  1  0  0  0  0
 14 17  1  0  0  0  0
 17 18  1  0  0  0  0
 17 19  1  0  0  0  0
 17 20  1  0  0  0  0
 20 21  1  0  0  0  0
 20 22  1  0  0  0  0
 20 23  1  0  0  0  0
 23 24  1  0  0  0  0
 23 25  1  0  0  0  0
 23 26  1  0  0  0  0
M  END
> <VM2 Rank>
218

> <Conf_Id>
268

> <Probability>
0.00

> <Sum Probability>
100.00

> <Delta G>
9.130

> <G>
57.391

> <E>
23.863

> <-TS>
33.527

> <U+W>
2.402

> <U>
56.286

> <W>
-53.884

> <W(PB)>
-56.064

> <W(SA)>
2.180

> <Valence>
8.641

> <Coulomb>
47.132

> <VdW>
0.514

> <VdW6>
-10.329

> <VdW12>
10.843

> <Bond>
0.322

> <Angle>
1.900

> <Pdih>
6.418

> <Idih>
0.000

> <Tether>
0.000

$$$$
VeraChem MOL file


 26 25  0  0  0  0  0  0  0  0999 V2000     
   21.6752   19.1422   21.0848 C   0  0  0  0  0  0  0  0  0  0  0  0
   22.6074   18.5796   20.9446 H   0  0  0  0  0  0  0  0  0  0  0  0
   21.4441   19.6434   20.1358 H   0  0  0  0  0  0  0  0  0  0  0  0
   21.8654   19.9160   21.8367 H   0  0  0  0  0  0  0  0  0  0  0  0
   20.5275   18.1922   21.4990 C   0  0  0  0  0  0  0  0  0  0  0  0
   20.7898   17.6645   22.4217 H   0  0  0  0  0  0  0  0  0  0  0  0
   20.4316   17.4134   20.7295 H   0  0  0  0  0  0  0  0  0  0  0  0
   19.1596   18.9063   21.6410 C   0  0  0  0  0  0  0  0  0  0  0  0
   18.9619   19.4465   20.7048 H   0  0  0  0  0  0  0  0  0  0  0  0
   18.3624   18.1541   21.7161 H   0  0  0  0  0  0  0  0  0  0  0  0
   19.0392   19.9069   22.8238 C   0  0  0  0  0  0  0  0  0  0  0  0
   18.3849   20.7246   22.4910 H   0  0  0  0  0  0  0  0  0  0  0  0
   19.9952   20.3908   23.0449 H   0  0  0  0  0  0  0  0  0  0  0  0
   18.3971   19.3198   24.1099 C   0  0  0  0  0  0  0  0  0  0  0  0
   18.1987   20.1428   24.8105 H   0  0  0  0  0  0  0  0  0  0  0  0
   17.4093   18.9163   23.8478 H   0  0  0  0  0  0  0  0  0  0  0  0
   19.1921   18.2177   24.8577 C   0  0  0  0  0  0  0  0  0  0  0  0
   19.4460   17.3867   24.1900 H   0  0  0  0  0  0  0  0  0  0  0  0
   18.5225   17.7872   25.6140 H   0  0  0  0  0  0  0  0  0  0  0  0
   20.4426   18.7302   25.6030 C   0  0  0  0  0  0  0  0  0  0  0  0
   20.2007   19.6584   26.1275 H   0  0  0  0  0  0  0  0  0  0  0  0
   20.7420   17.9896   26.3495 H   0  0  0  0  0  0  0  0  0  0  0  0
   21.6478   18.9837   24.7219 N   0  3  0  0  0  0  0  0  0  0  0  0
   22.4354   19.3660   25.2570 H   0  0  0  0  0  0  0  0  0  0  0  0
   21.4310   19.6495   23.9753 H   0  0  0  0  0  0  0  0  0  0  0  0
   21.9779   18.1220   24.2760 H   0  0  0  0  0  0  0  0  0  0  0  0
  1  2  1  0  0  0  0
  1  3  1  0  0  0  0
  1  4  1  0  0  0  0
  1  5  1  0  0  0  0
  5  6  1  0  0  0  0
  5  7  1  0  0  0  0
  5  8  1  0  0  0  0
  8  9  1  0  0  0  0
  8 10  1  0  0  0  0
  8 11  1  0  0  0  0
 11 12  1  0  0  0  0
 11 13  1  0  0  0  0
 11 14  1  0  0  0  0
 14 15  1  0  0  0  0
 14 16  1  0  0  0  0
 14 17  1  0  0  0  0
 17 18  1  0  0  0  0
 17 19  1  0  0  0  0
 17 20  1  0  0  0  0
 20 21  1  0  0  0  0
 20 22  1  0  0  0  0
 20 23  1  0  0  0  0
 23 24  1  0  0  0  0
 23 25  1  0  0  0  0
 23 26  1  0  0  0  0
M  END
> <VM2 Rank>
219

> <Conf_Id>
265

> <Probability>
0.00

> <Sum Probability>
100.00

> <Delta G>
9.165

> <G>
57.426

> <E>
24.051

> <-TS>
33.376

> <U+W>
2.589

> <U>
56.051

> <W>
-53.462

> <W(PB)>
-55.627

> <W(SA)>
2.165

> <Valence>
8.064

> <Coulomb>
48.004

> <VdW>
-0.017

> <VdW6>
-10.370

> <VdW12>
10.353

> <Bond>
0.341

> <Angle>
2.906

> <Pdih>
4.817

> <Idih>
0.000

> <Tether>
0.000

$$$$
