@<TRIPOS>MOLECULE
guest-s22_vm2.mol2 : vm2 ligand conformer 1
          20          19           1
SMALL
USER_CHARGES
 
@<TRIPOS>ATOM
       1    C1      20.445424   18.066038   18.739858 C.2        1 MOL1        -0.2535
       2    H1      20.659578   17.797373   17.706829 H          1 MOL1         0.0845
       3    H2      20.583345   17.288305   19.487959 H          1 MOL1         0.0845
       4    C2      20.033134   19.299530   19.053587 C.2        1 MOL1        -0.1324
       5    H3      19.913413   20.036217   18.259491 H          1 MOL1         0.0833
       6    C3      19.697327   19.819691   20.441276 C.3        1 MOL1        -0.1813
       7    H4      18.664456   20.192919   20.437774 H          1 MOL1         0.0753
       8    H5      20.327351   20.694148   20.652292 H          1 MOL1         0.0753
       9    C4      19.860458   18.789673   21.583394 C.3        1 MOL1        -0.1855
      10    H6      19.216569   17.920967   21.388863 H          1 MOL1         0.0755
      11    H7      20.897511   18.427583   21.605672 H          1 MOL1         0.0755
      12    C5      19.500368   19.396567   22.957087 C.3        1 MOL1        -0.1855
      13    H8      18.463710   19.760841   22.941303 H          1 MOL1         0.0755
      14    H9      20.141205   20.266455   23.157656 H          1 MOL1         0.0755
      15    C6      19.662936   18.367110   24.102456 C.3        1 MOL1        -0.1958
      16    H10     19.019173   17.497389   23.924255 H          1 MOL1         0.0753
      17    H11     20.696672   18.003057   24.140659 H          1 MOL1         0.0753
      18    C7      19.312941   18.942966   25.469891 C.2        1 MOL1         0.6174
      19    O1      20.197145   19.475034   26.111557 O.co2      1 MOL1        -0.6695
      20    O2      18.161268   18.861390   25.848894 O.co2      1 MOL1        -0.6695
@<TRIPOS>BOND
    1     1     2    1
    2     1     3    1
    3     1     4    2
    4     4     5    1
    5     4     6    1
    6     6     7    1
    7     6     8    1
    8     6     9    1
    9     9    10    1
   10     9    11    1
   11     9    12    1
   12    12    13    1
   13    12    14    1
   14    12    15    1
   15    15    16    1
   16    15    17    1
   17    15    18    1
   18    18    19    1
   19    18    20    2
@<TRIPOS>SUBSTRUCTURE
       1 MOL1            1 RESIDUE      1      MOL     
@<SCITEGIC>MOL_PROPERTY
VM2 Rank
SciTegic.value.IntegerValue
1

@<SCITEGIC>MOL_PROPERTY
Conf_Id
SciTegic.value.IntegerValue
204

@<SCITEGIC>MOL_PROPERTY
Probability
SciTegic.value.DoubleValue
13.63

@<SCITEGIC>MOL_PROPERTY
Sum Probability
SciTegic.value.DoubleValue
13.63

@<SCITEGIC>MOL_PROPERTY
Delta G
SciTegic.value.DoubleValue
0.000

@<SCITEGIC>MOL_PROPERTY
G
SciTegic.value.DoubleValue
-21.889

@<SCITEGIC>MOL_PROPERTY
E
SciTegic.value.DoubleValue
-37.137

@<SCITEGIC>MOL_PROPERTY
-TS
SciTegic.value.DoubleValue
15.248

@<SCITEGIC>MOL_PROPERTY
U+W
SciTegic.value.DoubleValue
-53.233

@<SCITEGIC>MOL_PROPERTY
U
SciTegic.value.DoubleValue
6.572

@<SCITEGIC>MOL_PROPERTY
W
SciTegic.value.DoubleValue
-59.803

@<SCITEGIC>MOL_PROPERTY
W(PB)
SciTegic.value.DoubleValue
-62.037

@<SCITEGIC>MOL_PROPERTY
W(SA)
SciTegic.value.DoubleValue
2.234

@<SCITEGIC>MOL_PROPERTY
Valence
SciTegic.value.DoubleValue
7.989

@<SCITEGIC>MOL_PROPERTY
Coulomb
SciTegic.value.DoubleValue
-2.698

@<SCITEGIC>MOL_PROPERTY
VdW
SciTegic.value.DoubleValue
1.281

@<SCITEGIC>MOL_PROPERTY
VdW6
SciTegic.value.DoubleValue
-6.467

@<SCITEGIC>MOL_PROPERTY
VdW12
SciTegic.value.DoubleValue
7.748

@<SCITEGIC>MOL_PROPERTY
Bond
SciTegic.value.DoubleValue
0.136

@<SCITEGIC>MOL_PROPERTY
Angle
SciTegic.value.DoubleValue
2.854

@<SCITEGIC>MOL_PROPERTY
Pdih
SciTegic.value.DoubleValue
4.998

@<SCITEGIC>MOL_PROPERTY
Idih
SciTegic.value.DoubleValue
0.001

@<SCITEGIC>MOL_PROPERTY
Tether
SciTegic.value.DoubleValue
0.000

@<TRIPOS>MOLECULE
guest-s22_vm2.mol2 : vm2 ligand conformer 2
          20          19           1
SMALL
USER_CHARGES
 
@<TRIPOS>ATOM
       1    C1      19.735423   18.451860   18.241254 C.2        1 MOL1        -0.2535
       2    H1      18.652569   18.359150   18.307759 H          1 MOL1         0.0845
       3    H2      20.219366   18.046248   17.354376 H          1 MOL1         0.0845
       4    C2      20.446261   19.037166   19.208609 C.2        1 MOL1        -0.1324
       5    H3      21.529587   19.119093   19.122871 H          1 MOL1         0.0833
       6    C3      19.844612   19.623330   20.466406 C.3        1 MOL1        -0.1813
       7    H4      18.757526   19.733172   20.352463 H          1 MOL1         0.0753
       8    H5      20.248414   20.631187   20.631673 H          1 MOL1         0.0753
       9    C4      20.145830   18.737336   21.693246 C.3        1 MOL1        -0.1855
      10    H6      19.743436   17.729416   21.521190 H          1 MOL1         0.0755
      11    H7      21.233240   18.631319   21.809450 H          1 MOL1         0.0755
      12    C5      19.541007   19.323338   22.987581 C.3        1 MOL1        -0.1855
      13    H8      18.453078   19.428549   22.873687 H          1 MOL1         0.0755
      14    H9      19.942550   20.331444   23.161066 H          1 MOL1         0.0755
      15    C6      19.842479   18.433915   24.218850 C.3        1 MOL1        -0.1958
      16    H10     19.436119   17.426709   24.067118 H          1 MOL1         0.0753
      17    H11     20.925651   18.329567   24.354691 H          1 MOL1         0.0753
      18    C7      19.254940   18.991950   25.510121 C.2        1 MOL1         0.6174
      19    O1      19.934086   19.757442   26.165430 O.co2      1 MOL1        -0.6695
      20    O2      18.126363   18.661663   25.816502 O.co2      1 MOL1        -0.6695
@<TRIPOS>BOND
    1     1     2    1
    2     1     3    1
    3     1     4    2
    4     4     5    1
    5     4     6    1
    6     6     7    1
    7     6     8    1
    8     6     9    1
    9     9    10    1
   10     9    11    1
   11     9    12    1
   12    12    13    1
   13    12    14    1
   14    12    15    1
   15    15    16    1
   16    15    17    1
   17    15    18    1
   18    18    19    1
   19    18    20    2
@<TRIPOS>SUBSTRUCTURE
       1 MOL1            1 RESIDUE      1      MOL     
@<SCITEGIC>MOL_PROPERTY
VM2 Rank
SciTegic.value.IntegerValue
2

@<SCITEGIC>MOL_PROPERTY
Conf_Id
SciTegic.value.IntegerValue
322

@<SCITEGIC>MOL_PROPERTY
Probability
SciTegic.value.DoubleValue
13.47

@<SCITEGIC>MOL_PROPERTY
Sum Probability
SciTegic.value.DoubleValue
27.11

@<SCITEGIC>MOL_PROPERTY
Delta G
SciTegic.value.DoubleValue
0.007

@<SCITEGIC>MOL_PROPERTY
G
SciTegic.value.DoubleValue
-21.882

@<SCITEGIC>MOL_PROPERTY
E
SciTegic.value.DoubleValue
-36.774

@<SCITEGIC>MOL_PROPERTY
-TS
SciTegic.value.DoubleValue
14.892

@<SCITEGIC>MOL_PROPERTY
U+W
SciTegic.value.DoubleValue
-52.870

@<SCITEGIC>MOL_PROPERTY
U
SciTegic.value.DoubleValue
6.632

@<SCITEGIC>MOL_PROPERTY
W
SciTegic.value.DoubleValue
-59.503

@<SCITEGIC>MOL_PROPERTY
W(PB)
SciTegic.value.DoubleValue
-61.758

@<SCITEGIC>MOL_PROPERTY
W(SA)
SciTegic.value.DoubleValue
2.255

@<SCITEGIC>MOL_PROPERTY
Valence
SciTegic.value.DoubleValue
9.076

@<SCITEGIC>MOL_PROPERTY
Coulomb
SciTegic.value.DoubleValue
-3.008

@<SCITEGIC>MOL_PROPERTY
VdW
SciTegic.value.DoubleValue
0.564

@<SCITEGIC>MOL_PROPERTY
VdW6
SciTegic.value.DoubleValue
-5.773

@<SCITEGIC>MOL_PROPERTY
VdW12
SciTegic.value.DoubleValue
6.337

@<SCITEGIC>MOL_PROPERTY
Bond
SciTegic.value.DoubleValue
0.084

@<SCITEGIC>MOL_PROPERTY
Angle
SciTegic.value.DoubleValue
2.239

@<SCITEGIC>MOL_PROPERTY
Pdih
SciTegic.value.DoubleValue
6.752

@<SCITEGIC>MOL_PROPERTY
Idih
SciTegic.value.DoubleValue
0.001

@<SCITEGIC>MOL_PROPERTY
Tether
SciTegic.value.DoubleValue
0.000

@<TRIPOS>MOLECULE
guest-s22_vm2.mol2 : vm2 ligand conformer 3
          20          19           1
SMALL
USER_CHARGES
 
@<TRIPOS>ATOM
       1    C1      20.923639   18.810353   18.394429 C.2        1 MOL1        -0.2535
       2    H1      20.961206   18.270019   17.450023 H          1 MOL1         0.0845
       3    H2      21.831021   19.318158   18.717512 H          1 MOL1         0.0845
       4    C2      19.806916   18.844280   19.126156 C.2        1 MOL1        -0.1324
       5    H3      18.909534   18.328469   18.785124 H          1 MOL1         0.0833
       6    C3      19.679505   19.573477   20.445116 C.3        1 MOL1        -0.1813
       7    H4      18.766774   20.184252   20.440579 H          1 MOL1         0.0753
       8    H5      20.522085   20.265327   20.580053 H          1 MOL1         0.0753
       9    C4      19.633609   18.582790   21.627186 C.3        1 MOL1        -0.1855
      10    H6      18.788156   17.893807   21.494083 H          1 MOL1         0.0755
      11    H7      20.546817   17.971667   21.624823 H          1 MOL1         0.0755
      12    C5      19.500318   19.311021   22.982334 C.3        1 MOL1        -0.1855
      13    H8      18.587403   19.922725   22.986236 H          1 MOL1         0.0755
      14    H9      20.346130   19.999395   23.117875 H          1 MOL1         0.0755
      15    C6      19.454930   18.317032   24.168887 C.3        1 MOL1        -0.1958
      16    H10     18.607359   17.630440   24.055687 H          1 MOL1         0.0753
      17    H11     20.366162   17.707165   24.187140 H          1 MOL1         0.0753
      18    C7      19.323654   19.012704   25.518997 C.2        1 MOL1         0.6174
      19    O1      20.341480   19.329230   26.102508 O.co2      1 MOL1        -0.6695
      20    O2      18.206949   19.237111   25.942389 O.co2      1 MOL1        -0.6695
@<TRIPOS>BOND
    1     1     2    1
    2     1     3    1
    3     1     4    2
    4     4     5    1
    5     4     6    1
    6     6     7    1
    7     6     8    1
    8     6     9    1
    9     9    10    1
   10     9    11    1
   11     9    12    1
   12    12    13    1
   13    12    14    1
   14    12    15    1
   15    15    16    1
   16    15    17    1
   17    15    18    1
   18    18    19    1
   19    18    20    2
@<TRIPOS>SUBSTRUCTURE
       1 MOL1            1 RESIDUE      1      MOL     
@<SCITEGIC>MOL_PROPERTY
VM2 Rank
SciTegic.value.IntegerValue
3

@<SCITEGIC>MOL_PROPERTY
Conf_Id
SciTegic.value.IntegerValue
710

@<SCITEGIC>MOL_PROPERTY
Probability
SciTegic.value.DoubleValue
12.22

@<SCITEGIC>MOL_PROPERTY
Sum Probability
SciTegic.value.DoubleValue
39.32

@<SCITEGIC>MOL_PROPERTY
Delta G
SciTegic.value.DoubleValue
0.065

@<SCITEGIC>MOL_PROPERTY
G
SciTegic.value.DoubleValue
-21.824

@<SCITEGIC>MOL_PROPERTY
E
SciTegic.value.DoubleValue
-36.715

@<SCITEGIC>MOL_PROPERTY
-TS
SciTegic.value.DoubleValue
14.892

@<SCITEGIC>MOL_PROPERTY
U+W
SciTegic.value.DoubleValue
-52.812

@<SCITEGIC>MOL_PROPERTY
U
SciTegic.value.DoubleValue
6.632

@<SCITEGIC>MOL_PROPERTY
W
SciTegic.value.DoubleValue
-59.444

@<SCITEGIC>MOL_PROPERTY
W(PB)
SciTegic.value.DoubleValue
-61.727

@<SCITEGIC>MOL_PROPERTY
W(SA)
SciTegic.value.DoubleValue
2.283

@<SCITEGIC>MOL_PROPERTY
Valence
SciTegic.value.DoubleValue
9.076

@<SCITEGIC>MOL_PROPERTY
Coulomb
SciTegic.value.DoubleValue
-3.008

@<SCITEGIC>MOL_PROPERTY
VdW
SciTegic.value.DoubleValue
0.564

@<SCITEGIC>MOL_PROPERTY
VdW6
SciTegic.value.DoubleValue
-5.773

@<SCITEGIC>MOL_PROPERTY
VdW12
SciTegic.value.DoubleValue
6.337

@<SCITEGIC>MOL_PROPERTY
Bond
SciTegic.value.DoubleValue
0.084

@<SCITEGIC>MOL_PROPERTY
Angle
SciTegic.value.DoubleValue
2.239

@<SCITEGIC>MOL_PROPERTY
Pdih
SciTegic.value.DoubleValue
6.752

@<SCITEGIC>MOL_PROPERTY
Idih
SciTegic.value.DoubleValue
0.001

@<SCITEGIC>MOL_PROPERTY
Tether
SciTegic.value.DoubleValue
0.000

@<TRIPOS>MOLECULE
guest-s22_vm2.mol2 : vm2 ligand conformer 4
          20          19           1
SMALL
USER_CHARGES
 
@<TRIPOS>ATOM
       1    C1      19.230994   18.403812   18.728503 C.2        1 MOL1        -0.2535
       2    H1      18.250619   18.255627   18.278944 H          1 MOL1         0.0845
       3    H2      20.063261   17.837200   18.314029 H          1 MOL1         0.0845
       4    C2      19.401291   19.246348   19.750662 C.2        1 MOL1        -0.1324
       5    H3      18.555097   19.805922   20.148310 H          1 MOL1         0.0833
       6    C3      20.733397   19.507512   20.420794 C.3        1 MOL1        -0.1813
       7    H4      20.863489   20.585184   20.587416 H          1 MOL1         0.0753
       8    H5      21.550046   19.198891   19.754166 H          1 MOL1         0.0753
       9    C4      20.875784   18.751521   21.761040 C.3        1 MOL1        -0.1855
      10    H6      20.729106   17.676013   21.590524 H          1 MOL1         0.0755
      11    H7      21.903678   18.874300   22.128788 H          1 MOL1         0.0755
      12    C5      19.887845   19.250352   22.840480 C.3        1 MOL1        -0.1855
      13    H8      18.854008   19.097230   22.502222 H          1 MOL1         0.0755
      14    H9      20.017968   20.330973   22.991095 H          1 MOL1         0.0755
      15    C6      20.091695   18.517766   24.189488 C.3        1 MOL1        -0.1958
      16    H10     19.953209   17.437860   24.058211 H          1 MOL1         0.0753
      17    H11     21.114436   18.671871   24.553885 H          1 MOL1         0.0753
      18    C7      19.127588   18.991023   25.271420 C.2        1 MOL1         0.6174
      19    O1      19.462261   19.929418   25.967199 O.co2      1 MOL1        -0.6695
      20    O2      18.060147   18.420248   25.378413 O.co2      1 MOL1        -0.6695
@<TRIPOS>BOND
    1     1     2    1
    2     1     3    1
    3     1     4    2
    4     4     5    1
    5     4     6    1
    6     6     7    1
    7     6     8    1
    8     6     9    1
    9     9    10    1
   10     9    11    1
   11     9    12    1
   12    12    13    1
   13    12    14    1
   14    12    15    1
   15    15    16    1
   16    15    17    1
   17    15    18    1
   18    18    19    1
   19    18    20    2
@<TRIPOS>SUBSTRUCTURE
       1 MOL1            1 RESIDUE      1      MOL     
@<SCITEGIC>MOL_PROPERTY
VM2 Rank
SciTegic.value.IntegerValue
4

@<SCITEGIC>MOL_PROPERTY
Conf_Id
SciTegic.value.IntegerValue
708

@<SCITEGIC>MOL_PROPERTY
Probability
SciTegic.value.DoubleValue
4.87

@<SCITEGIC>MOL_PROPERTY
Sum Probability
SciTegic.value.DoubleValue
44.19

@<SCITEGIC>MOL_PROPERTY
Delta G
SciTegic.value.DoubleValue
0.614

@<SCITEGIC>MOL_PROPERTY
G
SciTegic.value.DoubleValue
-21.276

@<SCITEGIC>MOL_PROPERTY
E
SciTegic.value.DoubleValue
-36.308

@<SCITEGIC>MOL_PROPERTY
-TS
SciTegic.value.DoubleValue
15.033

@<SCITEGIC>MOL_PROPERTY
U+W
SciTegic.value.DoubleValue
-52.405

@<SCITEGIC>MOL_PROPERTY
U
SciTegic.value.DoubleValue
7.828

@<SCITEGIC>MOL_PROPERTY
W
SciTegic.value.DoubleValue
-60.233

@<SCITEGIC>MOL_PROPERTY
W(PB)
SciTegic.value.DoubleValue
-62.486

@<SCITEGIC>MOL_PROPERTY
W(SA)
SciTegic.value.DoubleValue
2.254

@<SCITEGIC>MOL_PROPERTY
Valence
SciTegic.value.DoubleValue
9.300

@<SCITEGIC>MOL_PROPERTY
Coulomb
SciTegic.value.DoubleValue
-2.080

@<SCITEGIC>MOL_PROPERTY
VdW
SciTegic.value.DoubleValue
0.608

@<SCITEGIC>MOL_PROPERTY
VdW6
SciTegic.value.DoubleValue
-6.341

@<SCITEGIC>MOL_PROPERTY
VdW12
SciTegic.value.DoubleValue
6.949

@<SCITEGIC>MOL_PROPERTY
Bond
SciTegic.value.DoubleValue
0.103

@<SCITEGIC>MOL_PROPERTY
Angle
SciTegic.value.DoubleValue
2.334

@<SCITEGIC>MOL_PROPERTY
Pdih
SciTegic.value.DoubleValue
6.862

@<SCITEGIC>MOL_PROPERTY
Idih
SciTegic.value.DoubleValue
0.001

@<SCITEGIC>MOL_PROPERTY
Tether
SciTegic.value.DoubleValue
0.000

@<TRIPOS>MOLECULE
guest-s22_vm2.mol2 : vm2 ligand conformer 5
          20          19           1
SMALL
USER_CHARGES
 
@<TRIPOS>ATOM
       1    C1      21.242824   19.010456   18.987971 C.2        1 MOL1        -0.2535
       2    H1      20.977260   18.112828   18.431875 H          1 MOL1         0.0845
       3    H2      22.218165   19.452012   18.790650 H          1 MOL1         0.0845
       4    C2      20.408792   19.550097   19.880639 C.2        1 MOL1        -0.1324
       5    H3      20.693290   20.450668   20.424075 H          1 MOL1         0.0833
       6    C3      19.037108   18.996015   20.201994 C.3        1 MOL1        -0.1813
       7    H4      18.702384   18.340228   19.386851 H          1 MOL1         0.0753
       8    H5      18.306699   19.814228   20.257615 H          1 MOL1         0.0753
       9    C4      19.021802   18.192487   21.521903 C.3        1 MOL1        -0.1855
      10    H6      18.041030   17.709618   21.630547 H          1 MOL1         0.0755
      11    H7      19.765302   17.385384   21.466224 H          1 MOL1         0.0755
      12    C5      19.294825   19.071537   22.763989 C.3        1 MOL1        -0.1855
      13    H8      18.566537   19.893344   22.803851 H          1 MOL1         0.0755
      14    H9      20.290048   19.530187   22.687473 H          1 MOL1         0.0755
      15    C6      19.215170   18.253503   24.076441 C.3        1 MOL1        -0.1958
      16    H10     18.222251   17.799912   24.180844 H          1 MOL1         0.0753
      17    H11     19.945278   17.435469   24.057216 H          1 MOL1         0.0753
      18    C7      19.482378   19.098013   25.317186 C.2        1 MOL1         0.6174
      19    O1      20.628329   19.194356   25.709838 O.co2      1 MOL1        -0.6695
      20    O2      18.539772   19.651535   25.848040 O.co2      1 MOL1        -0.6695
@<TRIPOS>BOND
    1     1     2    1
    2     1     3    1
    3     1     4    2
    4     4     5    1
    5     4     6    1
    6     6     7    1
    7     6     8    1
    8     6     9    1
    9     9    10    1
   10     9    11    1
   11     9    12    1
   12    12    13    1
   13    12    14    1
   14    12    15    1
   15    15    16    1
   16    15    17    1
   17    15    18    1
   18    18    19    1
   19    18    20    2
@<TRIPOS>SUBSTRUCTURE
       1 MOL1            1 RESIDUE      1      MOL     
@<SCITEGIC>MOL_PROPERTY
VM2 Rank
SciTegic.value.IntegerValue
5

@<SCITEGIC>MOL_PROPERTY
Conf_Id
SciTegic.value.IntegerValue
132

@<SCITEGIC>MOL_PROPERTY
Probability
SciTegic.value.DoubleValue
4.68

@<SCITEGIC>MOL_PROPERTY
Sum Probability
SciTegic.value.DoubleValue
48.88

@<SCITEGIC>MOL_PROPERTY
Delta G
SciTegic.value.DoubleValue
0.637

@<SCITEGIC>MOL_PROPERTY
G
SciTegic.value.DoubleValue
-21.252

@<SCITEGIC>MOL_PROPERTY
E
SciTegic.value.DoubleValue
-36.284

@<SCITEGIC>MOL_PROPERTY
-TS
SciTegic.value.DoubleValue
15.032

@<SCITEGIC>MOL_PROPERTY
U+W
SciTegic.value.DoubleValue
-52.381

@<SCITEGIC>MOL_PROPERTY
U
SciTegic.value.DoubleValue
7.828

@<SCITEGIC>MOL_PROPERTY
W
SciTegic.value.DoubleValue
-60.209

@<SCITEGIC>MOL_PROPERTY
W(PB)
SciTegic.value.DoubleValue
-62.451

@<SCITEGIC>MOL_PROPERTY
W(SA)
SciTegic.value.DoubleValue
2.242

@<SCITEGIC>MOL_PROPERTY
Valence
SciTegic.value.DoubleValue
9.300

@<SCITEGIC>MOL_PROPERTY
Coulomb
SciTegic.value.DoubleValue
-2.080

@<SCITEGIC>MOL_PROPERTY
VdW
SciTegic.value.DoubleValue
0.608

@<SCITEGIC>MOL_PROPERTY
VdW6
SciTegic.value.DoubleValue
-6.341

@<SCITEGIC>MOL_PROPERTY
VdW12
SciTegic.value.DoubleValue
6.949

@<SCITEGIC>MOL_PROPERTY
Bond
SciTegic.value.DoubleValue
0.103

@<SCITEGIC>MOL_PROPERTY
Angle
SciTegic.value.DoubleValue
2.334

@<SCITEGIC>MOL_PROPERTY
Pdih
SciTegic.value.DoubleValue
6.862

@<SCITEGIC>MOL_PROPERTY
Idih
SciTegic.value.DoubleValue
0.001

@<SCITEGIC>MOL_PROPERTY
Tether
SciTegic.value.DoubleValue
0.000

@<TRIPOS>MOLECULE
guest-s22_vm2.mol2 : vm2 ligand conformer 6
          20          19           1
SMALL
USER_CHARGES
 
@<TRIPOS>ATOM
       1    C1      19.721866   18.915994   18.306279 C.2        1 MOL1        -0.2535
       2    H1      20.215662   18.820974   17.340672 H          1 MOL1         0.0845
       3    H2      18.743415   19.393387   18.323810 H          1 MOL1         0.0845
       4    C2      20.298425   18.465480   19.423548 C.2        1 MOL1        -0.1324
       5    H3      21.278923   17.991432   19.384385 H          1 MOL1         0.0833
       6    C3      19.674240   18.561529   20.797916 C.3        1 MOL1        -0.1813
       7    H4      19.736759   17.583110   21.290700 H          1 MOL1         0.0753
       8    H5      18.606962   18.807369   20.713802 H          1 MOL1         0.0753
       9    C4      20.383191   19.633814   21.655472 C.3        1 MOL1        -0.1855
      10    H6      21.437310   19.357658   21.795342 H          1 MOL1         0.0755
      11    H7      20.382188   20.584471   21.104483 H          1 MOL1         0.0755
      12    C5      19.717311   19.861534   23.033489 C.3        1 MOL1        -0.1855
      13    H8      18.666340   20.150721   22.894831 H          1 MOL1         0.0755
      14    H9      20.209980   20.710997   23.526627 H          1 MOL1         0.0755
      15    C6      19.795807   18.628108   23.970224 C.3        1 MOL1        -0.1958
      16    H10     19.235783   17.785957   23.548443 H          1 MOL1         0.0753
      17    H11     20.837197   18.303615   24.082444 H          1 MOL1         0.0753
      18    C7      19.235315   18.907469   25.360106 C.2        1 MOL1         0.6174
      19    O1      19.994849   19.325923   26.211422 O.co2      1 MOL1        -0.6695
      20    O2      18.049997   18.718150   25.549546 O.co2      1 MOL1        -0.6695
@<TRIPOS>BOND
    1     1     2    1
    2     1     3    1
    3     1     4    2
    4     4     5    1
    5     4     6    1
    6     6     7    1
    7     6     8    1
    8     6     9    1
    9     9    10    1
   10     9    11    1
   11     9    12    1
   12    12    13    1
   13    12    14    1
   14    12    15    1
   15    15    16    1
   16    15    17    1
   17    15    18    1
   18    18    19    1
   19    18    20    2
@<TRIPOS>SUBSTRUCTURE
       1 MOL1            1 RESIDUE      1      MOL     
@<SCITEGIC>MOL_PROPERTY
VM2 Rank
SciTegic.value.IntegerValue
6

@<SCITEGIC>MOL_PROPERTY
Conf_Id
SciTegic.value.IntegerValue
217

@<SCITEGIC>MOL_PROPERTY
Probability
SciTegic.value.DoubleValue
3.97

@<SCITEGIC>MOL_PROPERTY
Sum Probability
SciTegic.value.DoubleValue
52.84

@<SCITEGIC>MOL_PROPERTY
Delta G
SciTegic.value.DoubleValue
0.736

@<SCITEGIC>MOL_PROPERTY
G
SciTegic.value.DoubleValue
-21.153

@<SCITEGIC>MOL_PROPERTY
E
SciTegic.value.DoubleValue
-36.159

@<SCITEGIC>MOL_PROPERTY
-TS
SciTegic.value.DoubleValue
15.006

@<SCITEGIC>MOL_PROPERTY
U+W
SciTegic.value.DoubleValue
-52.256

@<SCITEGIC>MOL_PROPERTY
U
SciTegic.value.DoubleValue
7.491

@<SCITEGIC>MOL_PROPERTY
W
SciTegic.value.DoubleValue
-59.747

@<SCITEGIC>MOL_PROPERTY
W(PB)
SciTegic.value.DoubleValue
-61.973

@<SCITEGIC>MOL_PROPERTY
W(SA)
SciTegic.value.DoubleValue
2.226

@<SCITEGIC>MOL_PROPERTY
Valence
SciTegic.value.DoubleValue
9.604

@<SCITEGIC>MOL_PROPERTY
Coulomb
SciTegic.value.DoubleValue
-2.799

@<SCITEGIC>MOL_PROPERTY
VdW
SciTegic.value.DoubleValue
0.686

@<SCITEGIC>MOL_PROPERTY
VdW6
SciTegic.value.DoubleValue
-6.435

@<SCITEGIC>MOL_PROPERTY
VdW12
SciTegic.value.DoubleValue
7.121

@<SCITEGIC>MOL_PROPERTY
Bond
SciTegic.value.DoubleValue
0.124

@<SCITEGIC>MOL_PROPERTY
Angle
SciTegic.value.DoubleValue
2.493

@<SCITEGIC>MOL_PROPERTY
Pdih
SciTegic.value.DoubleValue
6.986

@<SCITEGIC>MOL_PROPERTY
Idih
SciTegic.value.DoubleValue
0.001

@<SCITEGIC>MOL_PROPERTY
Tether
SciTegic.value.DoubleValue
0.000

@<TRIPOS>MOLECULE
guest-s22_vm2.mol2 : vm2 ligand conformer 7
          20          19           1
SMALL
USER_CHARGES
 
@<TRIPOS>ATOM
       1    C1      18.639263   19.560408   19.394283 C.2        1 MOL1        -0.2535
       2    H1      18.703876   20.614488   19.659157 H          1 MOL1         0.0845
       3    H2      17.730694   19.223013   18.898532 H          1 MOL1         0.0845
       4    C2      19.632206   18.710299   19.668857 C.2        1 MOL1        -0.1324
       5    H3      19.546532   17.658439   19.397482 H          1 MOL1         0.0833
       6    C3      20.922686   19.104738   20.355193 C.3        1 MOL1        -0.1813
       7    H4      21.013995   20.198149   20.408010 H          1 MOL1         0.0753
       8    H5      21.771126   18.751921   19.753934 H          1 MOL1         0.0753
       9    C4      21.036488   18.508317   21.776204 C.3        1 MOL1        -0.1855
      10    H6      20.944425   17.414784   21.723344 H          1 MOL1         0.0755
      11    H7      22.039494   18.720877   22.170769 H          1 MOL1         0.0755
      12    C5      19.977281   19.076701   22.748111 C.3        1 MOL1        -0.1855
      13    H8      18.968555   18.847109   22.377991 H          1 MOL1         0.0755
      14    H9      20.059974   20.171682   22.786394 H          1 MOL1         0.0755
      15    C6      20.137645   18.500495   24.176497 C.3        1 MOL1        -0.1958
      16    H10     20.044861   17.407989   24.156264 H          1 MOL1         0.0753
      17    H11     21.134159   18.734405   24.569858 H          1 MOL1         0.0753
      18    C7      19.103204   19.046176   25.154382 C.2        1 MOL1         0.6174
      19    O1      19.362929   20.073012   25.750116 O.co2      1 MOL1        -0.6695
      20    O2      18.059297   18.437855   25.284357 O.co2      1 MOL1        -0.6695
@<TRIPOS>BOND
    1     1     2    1
    2     1     3    1
    3     1     4    2
    4     4     5    1
    5     4     6    1
    6     6     7    1
    7     6     8    1
    8     6     9    1
    9     9    10    1
   10     9    11    1
   11     9    12    1
   12    12    13    1
   13    12    14    1
   14    12    15    1
   15    15    16    1
   16    15    17    1
   17    15    18    1
   18    18    19    1
   19    18    20    2
@<TRIPOS>SUBSTRUCTURE
       1 MOL1            1 RESIDUE      1      MOL     
@<SCITEGIC>MOL_PROPERTY
VM2 Rank
SciTegic.value.IntegerValue
7

@<SCITEGIC>MOL_PROPERTY
Conf_Id
SciTegic.value.IntegerValue
519

@<SCITEGIC>MOL_PROPERTY
Probability
SciTegic.value.DoubleValue
3.88

@<SCITEGIC>MOL_PROPERTY
Sum Probability
SciTegic.value.DoubleValue
56.72

@<SCITEGIC>MOL_PROPERTY
Delta G
SciTegic.value.DoubleValue
0.749

@<SCITEGIC>MOL_PROPERTY
G
SciTegic.value.DoubleValue
-21.140

@<SCITEGIC>MOL_PROPERTY
E
SciTegic.value.DoubleValue
-36.252

@<SCITEGIC>MOL_PROPERTY
-TS
SciTegic.value.DoubleValue
15.112

@<SCITEGIC>MOL_PROPERTY
U+W
SciTegic.value.DoubleValue
-52.348

@<SCITEGIC>MOL_PROPERTY
U
SciTegic.value.DoubleValue
8.428

@<SCITEGIC>MOL_PROPERTY
W
SciTegic.value.DoubleValue
-60.776

@<SCITEGIC>MOL_PROPERTY
W(PB)
SciTegic.value.DoubleValue
-62.984

@<SCITEGIC>MOL_PROPERTY
W(SA)
SciTegic.value.DoubleValue
2.208

@<SCITEGIC>MOL_PROPERTY
Valence
SciTegic.value.DoubleValue
9.231

@<SCITEGIC>MOL_PROPERTY
Coulomb
SciTegic.value.DoubleValue
-1.304

@<SCITEGIC>MOL_PROPERTY
VdW
SciTegic.value.DoubleValue
0.502

@<SCITEGIC>MOL_PROPERTY
VdW6
SciTegic.value.DoubleValue
-6.515

@<SCITEGIC>MOL_PROPERTY
VdW12
SciTegic.value.DoubleValue
7.017

@<SCITEGIC>MOL_PROPERTY
Bond
SciTegic.value.DoubleValue
0.103

@<SCITEGIC>MOL_PROPERTY
Angle
SciTegic.value.DoubleValue
2.328

@<SCITEGIC>MOL_PROPERTY
Pdih
SciTegic.value.DoubleValue
6.799

@<SCITEGIC>MOL_PROPERTY
Idih
SciTegic.value.DoubleValue
0.000

@<SCITEGIC>MOL_PROPERTY
Tether
SciTegic.value.DoubleValue
0.000

@<TRIPOS>MOLECULE
guest-s22_vm2.mol2 : vm2 ligand conformer 8
          20          19           1
SMALL
USER_CHARGES
 
@<TRIPOS>ATOM
       1    C1      20.396499   17.503597   19.623166 C.2        1 MOL1        -0.2535
       2    H1      19.972358   16.599103   19.190616 H          1 MOL1         0.0845
       3    H2      21.411872   17.444908   20.011741 H          1 MOL1         0.0845
       4    C2      19.693796   18.638202   19.676929 C.2        1 MOL1        -0.1324
       5    H3      18.677856   18.675042   19.284628 H          1 MOL1         0.0833
       6    C3      20.214957   19.933121   20.263064 C.3        1 MOL1        -0.1813
       7    H4      20.072090   20.740592   19.532705 H          1 MOL1         0.0753
       8    H5      21.296328   19.867691   20.444809 H          1 MOL1         0.0753
       9    C4      19.493440   20.314434   21.575296 C.3        1 MOL1        -0.1855
      10    H6      19.821476   21.317044   21.881969 H          1 MOL1         0.0755
      11    H7      18.411835   20.379165   21.393571 H          1 MOL1         0.0755
      12    C5      19.773076   19.315687   22.721548 C.3        1 MOL1        -0.1855
      13    H8      20.856174   19.239686   22.890102 H          1 MOL1         0.0755
      14    H9      19.424729   18.313110   22.437429 H          1 MOL1         0.0755
      15    C6      19.078148   19.740624   24.038560 C.3        1 MOL1        -0.1958
      16    H10     19.426204   20.733556   24.347473 H          1 MOL1         0.0753
      17    H11     17.993871   19.808663   23.889229 H          1 MOL1         0.0753
      18    C7      19.338894   18.770305   25.185114 C.2        1 MOL1         0.6174
      19    O1      20.323187   18.949061   25.875016 O.co2      1 MOL1        -0.6695
      20    O2      18.559003   17.852971   25.349307 O.co2      1 MOL1        -0.6695
@<TRIPOS>BOND
    1     1     2    1
    2     1     3    1
    3     1     4    2
    4     4     5    1
    5     4     6    1
    6     6     7    1
    7     6     8    1
    8     6     9    1
    9     9    10    1
   10     9    11    1
   11     9    12    1
   12    12    13    1
   13    12    14    1
   14    12    15    1
   15    15    16    1
   16    15    17    1
   17    15    18    1
   18    18    19    1
   19    18    20    2
@<TRIPOS>SUBSTRUCTURE
       1 MOL1            1 RESIDUE      1      MOL     
@<SCITEGIC>MOL_PROPERTY
VM2 Rank
SciTegic.value.IntegerValue
8

@<SCITEGIC>MOL_PROPERTY
Conf_Id
SciTegic.value.IntegerValue
556

@<SCITEGIC>MOL_PROPERTY
Probability
SciTegic.value.DoubleValue
3.81

@<SCITEGIC>MOL_PROPERTY
Sum Probability
SciTegic.value.DoubleValue
60.53

@<SCITEGIC>MOL_PROPERTY
Delta G
SciTegic.value.DoubleValue
0.761

@<SCITEGIC>MOL_PROPERTY
G
SciTegic.value.DoubleValue
-21.129

@<SCITEGIC>MOL_PROPERTY
E
SciTegic.value.DoubleValue
-36.240

@<SCITEGIC>MOL_PROPERTY
-TS
SciTegic.value.DoubleValue
15.112

@<SCITEGIC>MOL_PROPERTY
U+W
SciTegic.value.DoubleValue
-52.336

@<SCITEGIC>MOL_PROPERTY
U
SciTegic.value.DoubleValue
8.428

@<SCITEGIC>MOL_PROPERTY
W
SciTegic.value.DoubleValue
-60.765

@<SCITEGIC>MOL_PROPERTY
W(PB)
SciTegic.value.DoubleValue
-62.976

@<SCITEGIC>MOL_PROPERTY
W(SA)
SciTegic.value.DoubleValue
2.211

@<SCITEGIC>MOL_PROPERTY
Valence
SciTegic.value.DoubleValue
9.230

@<SCITEGIC>MOL_PROPERTY
Coulomb
SciTegic.value.DoubleValue
-1.304

@<SCITEGIC>MOL_PROPERTY
VdW
SciTegic.value.DoubleValue
0.501

@<SCITEGIC>MOL_PROPERTY
VdW6
SciTegic.value.DoubleValue
-6.515

@<SCITEGIC>MOL_PROPERTY
VdW12
SciTegic.value.DoubleValue
7.017

@<SCITEGIC>MOL_PROPERTY
Bond
SciTegic.value.DoubleValue
0.103

@<SCITEGIC>MOL_PROPERTY
Angle
SciTegic.value.DoubleValue
2.328

@<SCITEGIC>MOL_PROPERTY
Pdih
SciTegic.value.DoubleValue
6.799

@<SCITEGIC>MOL_PROPERTY
Idih
SciTegic.value.DoubleValue
0.000

@<SCITEGIC>MOL_PROPERTY
Tether
SciTegic.value.DoubleValue
0.000

@<TRIPOS>MOLECULE
guest-s22_vm2.mol2 : vm2 ligand conformer 9
          20          19           1
SMALL
USER_CHARGES
 
@<TRIPOS>ATOM
       1    C1      19.831470   18.536114   18.333314 C.2        1 MOL1        -0.2535
       2    H1      19.255011   17.619792   18.450038 H          1 MOL1         0.0845
       3    H2      20.235806   18.751183   17.345632 H          1 MOL1         0.0845
       4    C2      20.038947   19.365303   19.359507 C.2        1 MOL1        -0.1324
       5    H3      20.619642   20.277128   19.221677 H          1 MOL1         0.0833
       6    C3      19.509195   19.133791   20.757180 C.3        1 MOL1        -0.1813
       7    H4      18.738499   18.351165   20.746253 H          1 MOL1         0.0753
       8    H5      19.025017   20.051157   21.115030 H          1 MOL1         0.0753
       9    C4      20.645733   18.723280   21.720286 C.3        1 MOL1        -0.1855
      10    H6      21.169495   17.854150   21.298830 H          1 MOL1         0.0755
      11    H7      21.387123   19.531615   21.782964 H          1 MOL1         0.0755
      12    C5      20.150320   18.359841   23.140378 C.3        1 MOL1        -0.1855
      13    H8      20.999288   17.973714   23.721458 H          1 MOL1         0.0755
      14    H9      19.418459   17.542416   23.080484 H          1 MOL1         0.0755
      15    C6      19.527793   19.557406   23.904101 C.3        1 MOL1        -0.1958
      16    H10     20.233803   20.395897   23.933537 H          1 MOL1         0.0753
      17    H11     18.622929   19.911025   23.397231 H          1 MOL1         0.0753
      18    C7      19.148623   19.208089   25.338736 C.2        1 MOL1         0.6174
      19    O1      19.981851   19.371118   26.208154 O.co2      1 MOL1        -0.6695
      20    O2      18.037068   18.763059   25.546344 O.co2      1 MOL1        -0.6695
@<TRIPOS>BOND
    1     1     2    1
    2     1     3    1
    3     1     4    2
    4     4     5    1
    5     4     6    1
    6     6     7    1
    7     6     8    1
    8     6     9    1
    9     9    10    1
   10     9    11    1
   11     9    12    1
   12    12    13    1
   13    12    14    1
   14    12    15    1
   15    15    16    1
   16    15    17    1
   17    15    18    1
   18    18    19    1
   19    18    20    2
@<TRIPOS>SUBSTRUCTURE
       1 MOL1            1 RESIDUE      1      MOL     
@<SCITEGIC>MOL_PROPERTY
VM2 Rank
SciTegic.value.IntegerValue
9

@<SCITEGIC>MOL_PROPERTY
Conf_Id
SciTegic.value.IntegerValue
630

@<SCITEGIC>MOL_PROPERTY
Probability
SciTegic.value.DoubleValue
3.74

@<SCITEGIC>MOL_PROPERTY
Sum Probability
SciTegic.value.DoubleValue
64.27

@<SCITEGIC>MOL_PROPERTY
Delta G
SciTegic.value.DoubleValue
0.771

@<SCITEGIC>MOL_PROPERTY
G
SciTegic.value.DoubleValue
-21.119

@<SCITEGIC>MOL_PROPERTY
E
SciTegic.value.DoubleValue
-36.125

@<SCITEGIC>MOL_PROPERTY
-TS
SciTegic.value.DoubleValue
15.007

@<SCITEGIC>MOL_PROPERTY
U+W
SciTegic.value.DoubleValue
-52.222

@<SCITEGIC>MOL_PROPERTY
U
SciTegic.value.DoubleValue
7.491

@<SCITEGIC>MOL_PROPERTY
W
SciTegic.value.DoubleValue
-59.713

@<SCITEGIC>MOL_PROPERTY
W(PB)
SciTegic.value.DoubleValue
-61.949

@<SCITEGIC>MOL_PROPERTY
W(SA)
SciTegic.value.DoubleValue
2.236

@<SCITEGIC>MOL_PROPERTY
Valence
SciTegic.value.DoubleValue
9.604

@<SCITEGIC>MOL_PROPERTY
Coulomb
SciTegic.value.DoubleValue
-2.798

@<SCITEGIC>MOL_PROPERTY
VdW
SciTegic.value.DoubleValue
0.686

@<SCITEGIC>MOL_PROPERTY
VdW6
SciTegic.value.DoubleValue
-6.435

@<SCITEGIC>MOL_PROPERTY
VdW12
SciTegic.value.DoubleValue
7.121

@<SCITEGIC>MOL_PROPERTY
Bond
SciTegic.value.DoubleValue
0.124

@<SCITEGIC>MOL_PROPERTY
Angle
SciTegic.value.DoubleValue
2.493

@<SCITEGIC>MOL_PROPERTY
Pdih
SciTegic.value.DoubleValue
6.986

@<SCITEGIC>MOL_PROPERTY
Idih
SciTegic.value.DoubleValue
0.001

@<SCITEGIC>MOL_PROPERTY
Tether
SciTegic.value.DoubleValue
0.000

@<TRIPOS>MOLECULE
guest-s22_vm2.mol2 : vm2 ligand conformer 10
          20          19           1
SMALL
USER_CHARGES
 
@<TRIPOS>ATOM
       1    C1      20.749845   18.725153   18.701345 C.2        1 MOL1        -0.2535
       2    H1      20.879357   18.515511   17.640943 H          1 MOL1         0.0845
       3    H2      21.642061   19.000025   19.259819 H          1 MOL1         0.0845
       4    C2      19.542760   18.640346   19.272048 C.2        1 MOL1        -0.1324
       5    H3      18.686219   18.358345   18.660149 H          1 MOL1         0.0833
       6    C3      19.206291   18.902576   20.730577 C.3        1 MOL1        -0.1813
       7    H4      18.797087   17.980701   21.162341 H          1 MOL1         0.0753
       8    H5      18.393210   19.639305   20.776174 H          1 MOL1         0.0753
       9    C4      20.389933   19.406339   21.593374 C.3        1 MOL1        -0.1855
      10    H6      21.183314   18.646771   21.615212 H          1 MOL1         0.0755
      11    H7      20.820452   20.299962   21.121143 H          1 MOL1         0.0755
      12    C5      19.985112   19.769996   23.042121 C.3        1 MOL1        -0.1855
      13    H8      19.195536   20.534002   23.026959 H          1 MOL1         0.0755
      14    H9      20.848943   20.227523   23.544095 H          1 MOL1         0.0755
      15    C6      19.512204   18.552449   23.878271 C.3        1 MOL1        -0.1958
      16    H10     18.594835   18.126342   23.457006 H          1 MOL1         0.0753
      17    H11     20.274380   17.764244   23.863769 H          1 MOL1         0.0753
      18    C7      19.230517   18.910814   25.332990 C.2        1 MOL1         0.6174
      19    O1      20.142165   18.824652   26.131870 O.co2      1 MOL1        -0.6695
      20    O2      18.112173   19.285674   25.625403 O.co2      1 MOL1        -0.6695
@<TRIPOS>BOND
    1     1     2    1
    2     1     3    1
    3     1     4    2
    4     4     5    1
    5     4     6    1
    6     6     7    1
    7     6     8    1
    8     6     9    1
    9     9    10    1
   10     9    11    1
   11     9    12    1
   12    12    13    1
   13    12    14    1
   14    12    15    1
   15    15    16    1
   16    15    17    1
   17    15    18    1
   18    18    19    1
   19    18    20    2
@<TRIPOS>SUBSTRUCTURE
       1 MOL1            1 RESIDUE      1      MOL     
@<SCITEGIC>MOL_PROPERTY
VM2 Rank
SciTegic.value.IntegerValue
10

@<SCITEGIC>MOL_PROPERTY
Conf_Id
SciTegic.value.IntegerValue
143

@<SCITEGIC>MOL_PROPERTY
Probability
SciTegic.value.DoubleValue
3.66

@<SCITEGIC>MOL_PROPERTY
Sum Probability
SciTegic.value.DoubleValue
67.92

@<SCITEGIC>MOL_PROPERTY
Delta G
SciTegic.value.DoubleValue
0.785

@<SCITEGIC>MOL_PROPERTY
G
SciTegic.value.DoubleValue
-21.105

@<SCITEGIC>MOL_PROPERTY
E
SciTegic.value.DoubleValue
-36.460

@<SCITEGIC>MOL_PROPERTY
-TS
SciTegic.value.DoubleValue
15.356

@<SCITEGIC>MOL_PROPERTY
U+W
SciTegic.value.DoubleValue
-52.557

@<SCITEGIC>MOL_PROPERTY
U
SciTegic.value.DoubleValue
7.428

@<SCITEGIC>MOL_PROPERTY
W
SciTegic.value.DoubleValue
-59.984

@<SCITEGIC>MOL_PROPERTY
W(PB)
SciTegic.value.DoubleValue
-62.182

@<SCITEGIC>MOL_PROPERTY
W(SA)
SciTegic.value.DoubleValue
2.198

@<SCITEGIC>MOL_PROPERTY
Valence
SciTegic.value.DoubleValue
8.548

@<SCITEGIC>MOL_PROPERTY
Coulomb
SciTegic.value.DoubleValue
-2.540

@<SCITEGIC>MOL_PROPERTY
VdW
SciTegic.value.DoubleValue
1.420

@<SCITEGIC>MOL_PROPERTY
VdW6
SciTegic.value.DoubleValue
-7.116

@<SCITEGIC>MOL_PROPERTY
VdW12
SciTegic.value.DoubleValue
8.535

@<SCITEGIC>MOL_PROPERTY
Bond
SciTegic.value.DoubleValue
0.184

@<SCITEGIC>MOL_PROPERTY
Angle
SciTegic.value.DoubleValue
3.112

@<SCITEGIC>MOL_PROPERTY
Pdih
SciTegic.value.DoubleValue
5.251

@<SCITEGIC>MOL_PROPERTY
Idih
SciTegic.value.DoubleValue
0.001

@<SCITEGIC>MOL_PROPERTY
Tether
SciTegic.value.DoubleValue
0.000

@<TRIPOS>MOLECULE
guest-s22_vm2.mol2 : vm2 ligand conformer 11
          20          19           1
SMALL
USER_CHARGES
 
@<TRIPOS>ATOM
       1    C1      20.553036   17.981576   18.723218 C.2        1 MOL1        -0.2535
       2    H1      20.487827   17.898309   17.639674 H          1 MOL1         0.0845
       3    H2      20.852181   17.093003   19.276869 H          1 MOL1         0.0845
       4    C2      20.273537   19.129944   19.345190 C.2        1 MOL1        -0.1324
       5    H3      19.975244   20.007663   18.772245 H          1 MOL1         0.0833
       6    C3      20.343172   19.321164   20.844016 C.3        1 MOL1        -0.1813
       7    H4      20.898350   20.241089   21.070832 H          1 MOL1         0.0753
       8    H5      20.901307   18.493307   21.299794 H          1 MOL1         0.0753
       9    C4      18.928090   19.404714   21.459260 C.3        1 MOL1        -0.1855
      10    H6      18.360115   20.188423   20.939366 H          1 MOL1         0.0755
      11    H7      18.392550   18.462493   21.278681 H          1 MOL1         0.0755
      12    C5      18.930796   19.720664   22.974018 C.3        1 MOL1        -0.1855
      13    H8      17.893850   19.875235   23.303189 H          1 MOL1         0.0755
      14    H9      19.457858   20.667643   23.155147 H          1 MOL1         0.0755
      15    C6      19.565626   18.600838   23.838911 C.3        1 MOL1        -0.1958
      16    H10     19.076329   17.641120   23.634155 H          1 MOL1         0.0753
      17    H11     20.628255   18.482357   23.599158 H          1 MOL1         0.0753
      18    C7      19.456277   18.877814   25.333988 C.2        1 MOL1         0.6174
      19    O1      20.346186   19.510923   25.866856 O.co2      1 MOL1        -0.6695
      20    O2      18.474280   18.470363   25.922543 O.co2      1 MOL1        -0.6695
@<TRIPOS>BOND
    1     1     2    1
    2     1     3    1
    3     1     4    2
    4     4     5    1
    5     4     6    1
    6     6     7    1
    7     6     8    1
    8     6     9    1
    9     9    10    1
   10     9    11    1
   11     9    12    1
   12    12    13    1
   13    12    14    1
   14    12    15    1
   15    15    16    1
   16    15    17    1
   17    15    18    1
   18    18    19    1
   19    18    20    2
@<TRIPOS>SUBSTRUCTURE
       1 MOL1            1 RESIDUE      1      MOL     
@<SCITEGIC>MOL_PROPERTY
VM2 Rank
SciTegic.value.IntegerValue
11

@<SCITEGIC>MOL_PROPERTY
Conf_Id
SciTegic.value.IntegerValue
571

@<SCITEGIC>MOL_PROPERTY
Probability
SciTegic.value.DoubleValue
3.43

@<SCITEGIC>MOL_PROPERTY
Sum Probability
SciTegic.value.DoubleValue
71.35

@<SCITEGIC>MOL_PROPERTY
Delta G
SciTegic.value.DoubleValue
0.823

@<SCITEGIC>MOL_PROPERTY
G
SciTegic.value.DoubleValue
-21.066

@<SCITEGIC>MOL_PROPERTY
E
SciTegic.value.DoubleValue
-36.062

@<SCITEGIC>MOL_PROPERTY
-TS
SciTegic.value.DoubleValue
14.996

@<SCITEGIC>MOL_PROPERTY
U+W
SciTegic.value.DoubleValue
-52.158

@<SCITEGIC>MOL_PROPERTY
U
SciTegic.value.DoubleValue
7.601

@<SCITEGIC>MOL_PROPERTY
W
SciTegic.value.DoubleValue
-59.760

@<SCITEGIC>MOL_PROPERTY
W(PB)
SciTegic.value.DoubleValue
-62.008

@<SCITEGIC>MOL_PROPERTY
W(SA)
SciTegic.value.DoubleValue
2.248

@<SCITEGIC>MOL_PROPERTY
Valence
SciTegic.value.DoubleValue
9.602

@<SCITEGIC>MOL_PROPERTY
Coulomb
SciTegic.value.DoubleValue
-2.686

@<SCITEGIC>MOL_PROPERTY
VdW
SciTegic.value.DoubleValue
0.685

@<SCITEGIC>MOL_PROPERTY
VdW6
SciTegic.value.DoubleValue
-6.453

@<SCITEGIC>MOL_PROPERTY
VdW12
SciTegic.value.DoubleValue
7.139

@<SCITEGIC>MOL_PROPERTY
Bond
SciTegic.value.DoubleValue
0.125

@<SCITEGIC>MOL_PROPERTY
Angle
SciTegic.value.DoubleValue
2.485

@<SCITEGIC>MOL_PROPERTY
Pdih
SciTegic.value.DoubleValue
6.991

@<SCITEGIC>MOL_PROPERTY
Idih
SciTegic.value.DoubleValue
0.001

@<SCITEGIC>MOL_PROPERTY
Tether
SciTegic.value.DoubleValue
0.000

@<TRIPOS>MOLECULE
guest-s22_vm2.mol2 : vm2 ligand conformer 12
          20          19           1
SMALL
USER_CHARGES
 
@<TRIPOS>ATOM
       1    C1      20.409117   17.938256   18.704600 C.2        1 MOL1        -0.2535
       2    H1      20.523559   16.993911   19.234409 H          1 MOL1         0.0845
       3    H2      20.759202   17.980384   17.674590 H          1 MOL1         0.0845
       4    C2      19.863661   19.006327   19.292326 C.2        1 MOL1        -0.1324
       5    H3      19.758844   19.942463   18.744330 H          1 MOL1         0.0833
       6    C3      19.354408   19.022768   20.716504 C.3        1 MOL1        -0.1813
       7    H4      19.249667   17.994875   21.086725 H          1 MOL1         0.0753
       8    H5      18.353178   19.473086   20.742660 H          1 MOL1         0.0753
       9    C4      20.305639   19.820207   21.636944 C.3        1 MOL1        -0.1855
      10    H6      21.292381   19.337213   21.652734 H          1 MOL1         0.0755
      11    H7      20.457419   20.821028   21.209856 H          1 MOL1         0.0755
      12    C5      19.778579   19.976393   23.083366 C.3        1 MOL1        -0.1855
      13    H8      18.796048   20.468143   23.069773 H          1 MOL1         0.0755
      14    H9      20.453248   20.647112   23.633330 H          1 MOL1         0.0755
      15    C6      19.675382   18.634006   23.853045 C.3        1 MOL1        -0.1958
      16    H10     18.939404   17.973269   23.381387 H          1 MOL1         0.0753
      17    H11     20.639873   18.112613   23.835667 H          1 MOL1         0.0753
      18    C7      19.264640   18.820024   25.309278 C.2        1 MOL1         0.6174
      19    O1      20.140817   18.972266   26.137451 O.co2      1 MOL1        -0.6695
      20    O2      18.078757   18.827753   25.574486 O.co2      1 MOL1        -0.6695
@<TRIPOS>BOND
    1     1     2    1
    2     1     3    1
    3     1     4    2
    4     4     5    1
    5     4     6    1
    6     6     7    1
    7     6     8    1
    8     6     9    1
    9     9    10    1
   10     9    11    1
   11     9    12    1
   12    12    13    1
   13    12    14    1
   14    12    15    1
   15    15    16    1
   16    15    17    1
   17    15    18    1
   18    18    19    1
   19    18    20    2
@<TRIPOS>SUBSTRUCTURE
       1 MOL1            1 RESIDUE      1      MOL     
@<SCITEGIC>MOL_PROPERTY
VM2 Rank
SciTegic.value.IntegerValue
12

@<SCITEGIC>MOL_PROPERTY
Conf_Id
SciTegic.value.IntegerValue
467

@<SCITEGIC>MOL_PROPERTY
Probability
SciTegic.value.DoubleValue
3.25

@<SCITEGIC>MOL_PROPERTY
Sum Probability
SciTegic.value.DoubleValue
74.60

@<SCITEGIC>MOL_PROPERTY
Delta G
SciTegic.value.DoubleValue
0.855

@<SCITEGIC>MOL_PROPERTY
G
SciTegic.value.DoubleValue
-21.035

@<SCITEGIC>MOL_PROPERTY
E
SciTegic.value.DoubleValue
-36.031

@<SCITEGIC>MOL_PROPERTY
-TS
SciTegic.value.DoubleValue
14.996

@<SCITEGIC>MOL_PROPERTY
U+W
SciTegic.value.DoubleValue
-52.127

@<SCITEGIC>MOL_PROPERTY
U
SciTegic.value.DoubleValue
7.601

@<SCITEGIC>MOL_PROPERTY
W
SciTegic.value.DoubleValue
-59.728

@<SCITEGIC>MOL_PROPERTY
W(PB)
SciTegic.value.DoubleValue
-61.963

@<SCITEGIC>MOL_PROPERTY
W(SA)
SciTegic.value.DoubleValue
2.235

@<SCITEGIC>MOL_PROPERTY
Valence
SciTegic.value.DoubleValue
9.602

@<SCITEGIC>MOL_PROPERTY
Coulomb
SciTegic.value.DoubleValue
-2.686

@<SCITEGIC>MOL_PROPERTY
VdW
SciTegic.value.DoubleValue
0.685

@<SCITEGIC>MOL_PROPERTY
VdW6
SciTegic.value.DoubleValue
-6.454

@<SCITEGIC>MOL_PROPERTY
VdW12
SciTegic.value.DoubleValue
7.139

@<SCITEGIC>MOL_PROPERTY
Bond
SciTegic.value.DoubleValue
0.125

@<SCITEGIC>MOL_PROPERTY
Angle
SciTegic.value.DoubleValue
2.485

@<SCITEGIC>MOL_PROPERTY
Pdih
SciTegic.value.DoubleValue
6.991

@<SCITEGIC>MOL_PROPERTY
Idih
SciTegic.value.DoubleValue
0.001

@<SCITEGIC>MOL_PROPERTY
Tether
SciTegic.value.DoubleValue
0.000

@<TRIPOS>MOLECULE
guest-s22_vm2.mol2 : vm2 ligand conformer 13
          20          19           1
SMALL
USER_CHARGES
 
@<TRIPOS>ATOM
       1    C1      19.850398   18.453919   18.585309 C.2        1 MOL1        -0.2535
       2    H1      18.851723   18.158607   18.899851 H          1 MOL1         0.0845
       3    H2      20.107206   18.282701   17.541320 H          1 MOL1         0.0845
       4    C2      20.736257   19.000180   19.426020 C.2        1 MOL1        -0.1324
       5    H3      21.722478   19.273957   19.051823 H          1 MOL1         0.0833
       6    C3      20.524803   19.300176   20.900662 C.3        1 MOL1        -0.1813
       7    H4      20.768190   20.355471   21.082500 H          1 MOL1         0.0753
       8    H5      21.255900   18.722165   21.479557 H          1 MOL1         0.0753
       9    C4      19.095778   19.016169   21.426435 C.3        1 MOL1        -0.1855
      10    H6      18.372317   19.561856   20.805354 H          1 MOL1         0.0755
      11    H7      18.864957   17.947790   21.316152 H          1 MOL1         0.0755
      12    C5      18.886537   19.438783   22.900415 C.3        1 MOL1        -0.1855
      13    H8      17.824425   19.315706   23.153954 H          1 MOL1         0.0755
      14    H9      19.110416   20.508309   23.015989 H          1 MOL1         0.0755
      15    C6      19.735677   18.619785   23.907102 C.3        1 MOL1        -0.1958
      16    H10     19.553921   17.547033   23.770879 H          1 MOL1         0.0753
      17    H11     20.805029   18.792557   23.742081 H          1 MOL1         0.0753
      18    C7      19.428769   18.970580   25.358559 C.2        1 MOL1         0.6174
      19    O1      20.057916   19.872122   25.876358 O.co2      1 MOL1        -0.6695
      20    O2      18.554866   18.346285   25.927141 O.co2      1 MOL1        -0.6695
@<TRIPOS>BOND
    1     1     2    1
    2     1     3    1
    3     1     4    2
    4     4     5    1
    5     4     6    1
    6     6     7    1
    7     6     8    1
    8     6     9    1
    9     9    10    1
   10     9    11    1
   11     9    12    1
   12    12    13    1
   13    12    14    1
   14    12    15    1
   15    15    16    1
   16    15    17    1
   17    15    18    1
   18    18    19    1
   19    18    20    2
@<TRIPOS>SUBSTRUCTURE
       1 MOL1            1 RESIDUE      1      MOL     
@<SCITEGIC>MOL_PROPERTY
VM2 Rank
SciTegic.value.IntegerValue
13

@<SCITEGIC>MOL_PROPERTY
Conf_Id
SciTegic.value.IntegerValue
738

@<SCITEGIC>MOL_PROPERTY
Probability
SciTegic.value.DoubleValue
3.03

@<SCITEGIC>MOL_PROPERTY
Sum Probability
SciTegic.value.DoubleValue
77.63

@<SCITEGIC>MOL_PROPERTY
Delta G
SciTegic.value.DoubleValue
0.897

@<SCITEGIC>MOL_PROPERTY
G
SciTegic.value.DoubleValue
-20.992

@<SCITEGIC>MOL_PROPERTY
E
SciTegic.value.DoubleValue
-36.350

@<SCITEGIC>MOL_PROPERTY
-TS
SciTegic.value.DoubleValue
15.357

@<SCITEGIC>MOL_PROPERTY
U+W
SciTegic.value.DoubleValue
-52.446

@<SCITEGIC>MOL_PROPERTY
U
SciTegic.value.DoubleValue
7.428

@<SCITEGIC>MOL_PROPERTY
W
SciTegic.value.DoubleValue
-59.874

@<SCITEGIC>MOL_PROPERTY
W(PB)
SciTegic.value.DoubleValue
-62.078

@<SCITEGIC>MOL_PROPERTY
W(SA)
SciTegic.value.DoubleValue
2.204

@<SCITEGIC>MOL_PROPERTY
Valence
SciTegic.value.DoubleValue
8.548

@<SCITEGIC>MOL_PROPERTY
Coulomb
SciTegic.value.DoubleValue
-2.540

@<SCITEGIC>MOL_PROPERTY
VdW
SciTegic.value.DoubleValue
1.420

@<SCITEGIC>MOL_PROPERTY
VdW6
SciTegic.value.DoubleValue
-7.116

@<SCITEGIC>MOL_PROPERTY
VdW12
SciTegic.value.DoubleValue
8.535

@<SCITEGIC>MOL_PROPERTY
Bond
SciTegic.value.DoubleValue
0.184

@<SCITEGIC>MOL_PROPERTY
Angle
SciTegic.value.DoubleValue
3.112

@<SCITEGIC>MOL_PROPERTY
Pdih
SciTegic.value.DoubleValue
5.251

@<SCITEGIC>MOL_PROPERTY
Idih
SciTegic.value.DoubleValue
0.001

@<SCITEGIC>MOL_PROPERTY
Tether
SciTegic.value.DoubleValue
0.000

@<TRIPOS>MOLECULE
guest-s22_vm2.mol2 : vm2 ligand conformer 14
          20          19           1
SMALL
USER_CHARGES
 
@<TRIPOS>ATOM
       1    C1      19.855763   17.566528   19.830201 C.2        1 MOL1        -0.2535
       2    H1      18.962675   17.494445   20.446887 H          1 MOL1         0.0845
       3    H2      20.196035   16.651815   19.348023 H          1 MOL1         0.0845
       4    C2      20.515939   18.717140   19.657756 C.2        1 MOL1        -0.1324
       5    H3      21.403895   18.727771   19.026202 H          1 MOL1         0.0833
       6    C3      20.167383   20.067499   20.264202 C.3        1 MOL1        -0.1813
       7    H4      19.757641   20.710329   19.473860 H          1 MOL1         0.0753
       8    H5      21.094286   20.561426   20.585233 H          1 MOL1         0.0753
       9    C4      19.183956   20.045179   21.460625 C.3        1 MOL1        -0.1855
      10    H6      18.901979   21.080013   21.698145 H          1 MOL1         0.0755
      11    H7      18.254572   19.534654   21.175617 H          1 MOL1         0.0755
      12    C5      19.791732   19.395418   22.725691 C.3        1 MOL1        -0.1855
      13    H8      20.703525   19.935405   23.015945 H          1 MOL1         0.0755
      14    H9      20.092456   18.360897   22.513181 H          1 MOL1         0.0755
      15    C6      18.795068   19.401173   23.910826 C.3        1 MOL1        -0.1958
      16    H10     18.497855   20.428953   24.151235 H          1 MOL1         0.0753
      17    H11     17.883654   18.854352   23.640845 H          1 MOL1         0.0753
      18    C7      19.371505   18.768080   25.172174 C.2        1 MOL1         0.6174
      19    O1      19.989030   19.479317   25.940012 O.co2      1 MOL1        -0.6695
      20    O2      19.200623   17.577665   25.346513 O.co2      1 MOL1        -0.6695
@<TRIPOS>BOND
    1     1     2    1
    2     1     3    1
    3     1     4    2
    4     4     5    1
    5     4     6    1
    6     6     7    1
    7     6     8    1
    8     6     9    1
    9     9    10    1
   10     9    11    1
   11     9    12    1
   12    12    13    1
   13    12    14    1
   14    12    15    1
   15    15    16    1
   16    15    17    1
   17    15    18    1
   18    18    19    1
   19    18    20    2
@<TRIPOS>SUBSTRUCTURE
       1 MOL1            1 RESIDUE      1      MOL     
@<SCITEGIC>MOL_PROPERTY
VM2 Rank
SciTegic.value.IntegerValue
14

@<SCITEGIC>MOL_PROPERTY
Conf_Id
SciTegic.value.IntegerValue
833

@<SCITEGIC>MOL_PROPERTY
Probability
SciTegic.value.DoubleValue
1.69

@<SCITEGIC>MOL_PROPERTY
Sum Probability
SciTegic.value.DoubleValue
79.32

@<SCITEGIC>MOL_PROPERTY
Delta G
SciTegic.value.DoubleValue
1.245

@<SCITEGIC>MOL_PROPERTY
G
SciTegic.value.DoubleValue
-20.644

@<SCITEGIC>MOL_PROPERTY
E
SciTegic.value.DoubleValue
-36.100

@<SCITEGIC>MOL_PROPERTY
-TS
SciTegic.value.DoubleValue
15.455

@<SCITEGIC>MOL_PROPERTY
U+W
SciTegic.value.DoubleValue
-52.196

@<SCITEGIC>MOL_PROPERTY
U
SciTegic.value.DoubleValue
8.773

@<SCITEGIC>MOL_PROPERTY
W
SciTegic.value.DoubleValue
-60.969

@<SCITEGIC>MOL_PROPERTY
W(PB)
SciTegic.value.DoubleValue
-63.158

@<SCITEGIC>MOL_PROPERTY
W(SA)
SciTegic.value.DoubleValue
2.189

@<SCITEGIC>MOL_PROPERTY
Valence
SciTegic.value.DoubleValue
8.762

@<SCITEGIC>MOL_PROPERTY
Coulomb
SciTegic.value.DoubleValue
-1.079

@<SCITEGIC>MOL_PROPERTY
VdW
SciTegic.value.DoubleValue
1.090

@<SCITEGIC>MOL_PROPERTY
VdW6
SciTegic.value.DoubleValue
-7.279

@<SCITEGIC>MOL_PROPERTY
VdW12
SciTegic.value.DoubleValue
8.369

@<SCITEGIC>MOL_PROPERTY
Bond
SciTegic.value.DoubleValue
0.166

@<SCITEGIC>MOL_PROPERTY
Angle
SciTegic.value.DoubleValue
3.199

@<SCITEGIC>MOL_PROPERTY
Pdih
SciTegic.value.DoubleValue
5.396

@<SCITEGIC>MOL_PROPERTY
Idih
SciTegic.value.DoubleValue
0.001

@<SCITEGIC>MOL_PROPERTY
Tether
SciTegic.value.DoubleValue
0.000

@<TRIPOS>MOLECULE
guest-s22_vm2.mol2 : vm2 ligand conformer 15
          20          19           1
SMALL
USER_CHARGES
 
@<TRIPOS>ATOM
       1    C1      20.938377   17.892803   19.969763 C.2        1 MOL1        -0.2535
       2    H1      21.274259   16.976764   19.487025 H          1 MOL1         0.0845
       3    H2      21.553780   18.275341   20.780965 H          1 MOL1         0.0845
       4    C2      19.820254   18.507499   19.567981 C.2        1 MOL1        -0.1324
       5    H3      19.245844   18.077378   18.747926 H          1 MOL1         0.0833
       6    C3      19.224958   19.783470   20.142659 C.3        1 MOL1        -0.1813
       7    H4      18.134338   19.669352   20.203484 H          1 MOL1         0.0753
       8    H5      19.389386   20.599369   19.426397 H          1 MOL1         0.0753
       9    C4      19.751009   20.216037   21.533778 C.3        1 MOL1        -0.1855
      10    H6      20.844270   20.315128   21.509644 H          1 MOL1         0.0755
      11    H7      19.359681   21.217906   21.757230 H          1 MOL1         0.0755
      12    C5      19.320202   19.253209   22.664856 C.3        1 MOL1        -0.1855
      13    H8      19.690603   18.239688   22.461370 H          1 MOL1         0.0755
      14    H9      18.223868   19.187791   22.695975 H          1 MOL1         0.0755
      15    C6      19.844006   19.717406   24.046185 C.3        1 MOL1        -0.1958
      16    H10     20.939031   19.775510   24.035121 H          1 MOL1         0.0753
      17    H11     19.467920   20.721413   24.276387 H          1 MOL1         0.0753
      18    C7      19.430258   18.785815   25.179779 C.2        1 MOL1         0.6174
      19    O1      20.175466   17.871643   25.472418 O.co2      1 MOL1        -0.6695
      20    O2      18.366468   18.990119   25.730581 O.co2      1 MOL1        -0.6695
@<TRIPOS>BOND
    1     1     2    1
    2     1     3    1
    3     1     4    2
    4     4     5    1
    5     4     6    1
    6     6     7    1
    7     6     8    1
    8     6     9    1
    9     9    10    1
   10     9    11    1
   11     9    12    1
   12    12    13    1
   13    12    14    1
   14    12    15    1
   15    15    16    1
   16    15    17    1
   17    15    18    1
   18    18    19    1
   19    18    20    2
@<TRIPOS>SUBSTRUCTURE
       1 MOL1            1 RESIDUE      1      MOL     
@<SCITEGIC>MOL_PROPERTY
VM2 Rank
SciTegic.value.IntegerValue
15

@<SCITEGIC>MOL_PROPERTY
Conf_Id
SciTegic.value.IntegerValue
570

@<SCITEGIC>MOL_PROPERTY
Probability
SciTegic.value.DoubleValue
1.53

@<SCITEGIC>MOL_PROPERTY
Sum Probability
SciTegic.value.DoubleValue
80.85

@<SCITEGIC>MOL_PROPERTY
Delta G
SciTegic.value.DoubleValue
1.305

@<SCITEGIC>MOL_PROPERTY
G
SciTegic.value.DoubleValue
-20.585

@<SCITEGIC>MOL_PROPERTY
E
SciTegic.value.DoubleValue
-36.039

@<SCITEGIC>MOL_PROPERTY
-TS
SciTegic.value.DoubleValue
15.454

@<SCITEGIC>MOL_PROPERTY
U+W
SciTegic.value.DoubleValue
-52.135

@<SCITEGIC>MOL_PROPERTY
U
SciTegic.value.DoubleValue
8.773

@<SCITEGIC>MOL_PROPERTY
W
SciTegic.value.DoubleValue
-60.908

@<SCITEGIC>MOL_PROPERTY
W(PB)
SciTegic.value.DoubleValue
-63.119

@<SCITEGIC>MOL_PROPERTY
W(SA)
SciTegic.value.DoubleValue
2.212

@<SCITEGIC>MOL_PROPERTY
Valence
SciTegic.value.DoubleValue
8.762

@<SCITEGIC>MOL_PROPERTY
Coulomb
SciTegic.value.DoubleValue
-1.079

@<SCITEGIC>MOL_PROPERTY
VdW
SciTegic.value.DoubleValue
1.090

@<SCITEGIC>MOL_PROPERTY
VdW6
SciTegic.value.DoubleValue
-7.279

@<SCITEGIC>MOL_PROPERTY
VdW12
SciTegic.value.DoubleValue
8.369

@<SCITEGIC>MOL_PROPERTY
Bond
SciTegic.value.DoubleValue
0.166

@<SCITEGIC>MOL_PROPERTY
Angle
SciTegic.value.DoubleValue
3.199

@<SCITEGIC>MOL_PROPERTY
Pdih
SciTegic.value.DoubleValue
5.396

@<SCITEGIC>MOL_PROPERTY
Idih
SciTegic.value.DoubleValue
0.000

@<SCITEGIC>MOL_PROPERTY
Tether
SciTegic.value.DoubleValue
0.000

@<TRIPOS>MOLECULE
guest-s22_vm2.mol2 : vm2 ligand conformer 16
          20          19           1
SMALL
USER_CHARGES
 
@<TRIPOS>ATOM
       1    C1      19.529725   18.519250   18.556419 C.2        1 MOL1        -0.2535
       2    H1      18.784426   18.531833   17.762921 H          1 MOL1         0.0845
       3    H2      20.334544   17.790262   18.476289 H          1 MOL1         0.0845
       4    C2      19.454483   19.364964   19.587329 C.2        1 MOL1        -0.1324
       5    H3      18.640020   20.086415   19.649114 H          1 MOL1         0.0833
       6    C3      20.451165   19.406645   20.724226 C.3        1 MOL1        -0.1813
       7    H4      20.766683   20.444083   20.898284 H          1 MOL1         0.0753
       8    H5      21.354945   18.841573   20.458491 H          1 MOL1         0.0753
       9    C4      19.844042   18.826891   22.018947 C.3        1 MOL1        -0.1855
      10    H6      18.941595   19.395150   22.283718 H          1 MOL1         0.0755
      11    H7      19.525430   17.790745   21.839609 H          1 MOL1         0.0755
      12    C5      20.849139   18.864981   23.192258 C.3        1 MOL1        -0.1855
      13    H8      21.161733   19.901438   23.381300 H          1 MOL1         0.0755
      14    H9      21.753649   18.308017   22.912555 H          1 MOL1         0.0755
      15    C6      20.267562   18.258216   24.495521 C.3        1 MOL1        -0.1958
      16    H10     19.925116   17.231915   24.315809 H          1 MOL1         0.0753
      17    H11     21.054706   18.201616   25.256559 H          1 MOL1         0.0753
      18    C7      19.113588   19.059541   25.091412 C.2        1 MOL1         0.6174
      19    O1      19.375883   20.091847   25.676768 O.co2      1 MOL1        -0.6695
      20    O2      17.985415   18.625667   24.965120 O.co2      1 MOL1        -0.6695
@<TRIPOS>BOND
    1     1     2    1
    2     1     3    1
    3     1     4    2
    4     4     5    1
    5     4     6    1
    6     6     7    1
    7     6     8    1
    8     6     9    1
    9     9    10    1
   10     9    11    1
   11     9    12    1
   12    12    13    1
   13    12    14    1
   14    12    15    1
   15    15    16    1
   16    15    17    1
   17    15    18    1
   18    18    19    1
   19    18    20    2
@<TRIPOS>SUBSTRUCTURE
       1 MOL1            1 RESIDUE      1      MOL     
@<SCITEGIC>MOL_PROPERTY
VM2 Rank
SciTegic.value.IntegerValue
16

@<SCITEGIC>MOL_PROPERTY
Conf_Id
SciTegic.value.IntegerValue
120

@<SCITEGIC>MOL_PROPERTY
Probability
SciTegic.value.DoubleValue
1.45

@<SCITEGIC>MOL_PROPERTY
Sum Probability
SciTegic.value.DoubleValue
82.30

@<SCITEGIC>MOL_PROPERTY
Delta G
SciTegic.value.DoubleValue
1.337

@<SCITEGIC>MOL_PROPERTY
G
SciTegic.value.DoubleValue
-20.552

@<SCITEGIC>MOL_PROPERTY
E
SciTegic.value.DoubleValue
-35.757

@<SCITEGIC>MOL_PROPERTY
-TS
SciTegic.value.DoubleValue
15.205

@<SCITEGIC>MOL_PROPERTY
U+W
SciTegic.value.DoubleValue
-51.853

@<SCITEGIC>MOL_PROPERTY
U
SciTegic.value.DoubleValue
8.963

@<SCITEGIC>MOL_PROPERTY
W
SciTegic.value.DoubleValue
-60.816

@<SCITEGIC>MOL_PROPERTY
W(PB)
SciTegic.value.DoubleValue
-63.056

@<SCITEGIC>MOL_PROPERTY
W(SA)
SciTegic.value.DoubleValue
2.240

@<SCITEGIC>MOL_PROPERTY
Valence
SciTegic.value.DoubleValue
9.327

@<SCITEGIC>MOL_PROPERTY
Coulomb
SciTegic.value.DoubleValue
-0.781

@<SCITEGIC>MOL_PROPERTY
VdW
SciTegic.value.DoubleValue
0.417

@<SCITEGIC>MOL_PROPERTY
VdW6
SciTegic.value.DoubleValue
-6.635

@<SCITEGIC>MOL_PROPERTY
VdW12
SciTegic.value.DoubleValue
7.051

@<SCITEGIC>MOL_PROPERTY
Bond
SciTegic.value.DoubleValue
0.105

@<SCITEGIC>MOL_PROPERTY
Angle
SciTegic.value.DoubleValue
2.399

@<SCITEGIC>MOL_PROPERTY
Pdih
SciTegic.value.DoubleValue
6.822

@<SCITEGIC>MOL_PROPERTY
Idih
SciTegic.value.DoubleValue
0.000

@<SCITEGIC>MOL_PROPERTY
Tether
SciTegic.value.DoubleValue
0.000

@<TRIPOS>MOLECULE
guest-s22_vm2.mol2 : vm2 ligand conformer 17
          20          19           1
SMALL
USER_CHARGES
 
@<TRIPOS>ATOM
       1    C1      19.949126   18.192525   18.616446 C.2        1 MOL1        -0.2535
       2    H1      19.082248   18.768189   18.295963 H          1 MOL1         0.0845
       3    H2      20.270681   17.372821   17.976169 H          1 MOL1         0.0845
       4    C2      20.594091   18.475789   19.751104 C.2        1 MOL1        -0.1324
       5    H3      21.459245   17.886525   20.054312 H          1 MOL1         0.0833
       6    C3      20.206800   19.597228   20.689201 C.3        1 MOL1        -0.1813
       7    H4      19.507044   20.283451   20.193037 H          1 MOL1         0.0753
       8    H5      21.097901   20.185503   20.946099 H          1 MOL1         0.0753
       9    C4      19.561163   19.047334   21.978304 C.3        1 MOL1        -0.1855
      10    H6      18.673009   18.455583   21.716987 H          1 MOL1         0.0755
      11    H7      20.263894   18.363156   22.473784 H          1 MOL1         0.0755
      12    C5      19.161938   20.180938   22.949845 C.3        1 MOL1        -0.1855
      13    H8      18.472038   20.867775   22.441048 H          1 MOL1         0.0755
      14    H9      20.050007   20.768468   23.221576 H          1 MOL1         0.0755
      15    C6      18.483355   19.649845   24.239169 C.3        1 MOL1        -0.1958
      16    H10     18.115615   20.494047   24.834205 H          1 MOL1         0.0753
      17    H11     17.610255   19.037444   23.983202 H          1 MOL1         0.0753
      18    C7      19.408332   18.829631   25.133893 C.2        1 MOL1         0.6174
      19    O1      20.233927   19.422639   25.800100 O.co2      1 MOL1        -0.6695
      20    O2      19.272268   17.622072   25.149938 O.co2      1 MOL1        -0.6695
@<TRIPOS>BOND
    1     1     2    1
    2     1     3    1
    3     1     4    2
    4     4     5    1
    5     4     6    1
    6     6     7    1
    7     6     8    1
    8     6     9    1
    9     9    10    1
   10     9    11    1
   11     9    12    1
   12    12    13    1
   13    12    14    1
   14    12    15    1
   15    15    16    1
   16    15    17    1
   17    15    18    1
   18    18    19    1
   19    18    20    2
@<TRIPOS>SUBSTRUCTURE
       1 MOL1            1 RESIDUE      1      MOL     
@<SCITEGIC>MOL_PROPERTY
VM2 Rank
SciTegic.value.IntegerValue
17

@<SCITEGIC>MOL_PROPERTY
Conf_Id
SciTegic.value.IntegerValue
488

@<SCITEGIC>MOL_PROPERTY
Probability
SciTegic.value.DoubleValue
1.32

@<SCITEGIC>MOL_PROPERTY
Sum Probability
SciTegic.value.DoubleValue
83.61

@<SCITEGIC>MOL_PROPERTY
Delta G
SciTegic.value.DoubleValue
1.393

@<SCITEGIC>MOL_PROPERTY
G
SciTegic.value.DoubleValue
-20.496

@<SCITEGIC>MOL_PROPERTY
E
SciTegic.value.DoubleValue
-35.701

@<SCITEGIC>MOL_PROPERTY
-TS
SciTegic.value.DoubleValue
15.205

@<SCITEGIC>MOL_PROPERTY
U+W
SciTegic.value.DoubleValue
-51.797

@<SCITEGIC>MOL_PROPERTY
U
SciTegic.value.DoubleValue
8.963

@<SCITEGIC>MOL_PROPERTY
W
SciTegic.value.DoubleValue
-60.761

@<SCITEGIC>MOL_PROPERTY
W(PB)
SciTegic.value.DoubleValue
-63.011

@<SCITEGIC>MOL_PROPERTY
W(SA)
SciTegic.value.DoubleValue
2.251

@<SCITEGIC>MOL_PROPERTY
Valence
SciTegic.value.DoubleValue
9.327

@<SCITEGIC>MOL_PROPERTY
Coulomb
SciTegic.value.DoubleValue
-0.780

@<SCITEGIC>MOL_PROPERTY
VdW
SciTegic.value.DoubleValue
0.417

@<SCITEGIC>MOL_PROPERTY
VdW6
SciTegic.value.DoubleValue
-6.635

@<SCITEGIC>MOL_PROPERTY
VdW12
SciTegic.value.DoubleValue
7.051

@<SCITEGIC>MOL_PROPERTY
Bond
SciTegic.value.DoubleValue
0.105

@<SCITEGIC>MOL_PROPERTY
Angle
SciTegic.value.DoubleValue
2.399

@<SCITEGIC>MOL_PROPERTY
Pdih
SciTegic.value.DoubleValue
6.822

@<SCITEGIC>MOL_PROPERTY
Idih
SciTegic.value.DoubleValue
0.000

@<SCITEGIC>MOL_PROPERTY
Tether
SciTegic.value.DoubleValue
0.000

@<TRIPOS>MOLECULE
guest-s22_vm2.mol2 : vm2 ligand conformer 18
          20          19           1
SMALL
USER_CHARGES
 
@<TRIPOS>ATOM
       1    C1      19.105667   19.795123   18.882120 C.2        1 MOL1        -0.2535
       2    H1      19.307894   20.825916   19.168742 H          1 MOL1         0.0845
       3    H2      18.427411   19.631425   18.046398 H          1 MOL1         0.0845
       4    C2      19.663502   18.768750   19.529455 C.2        1 MOL1        -0.1324
       5    H3      19.447090   17.744321   19.227217 H          1 MOL1         0.0833
       6    C3      20.613916   18.918230   20.696518 C.3        1 MOL1        -0.1813
       7    H4      20.971720   19.954587   20.765288 H          1 MOL1         0.0753
       8    H5      21.498623   18.288552   20.532565 H          1 MOL1         0.0753
       9    C4      19.933989   18.520767   22.023463 C.3        1 MOL1        -0.1855
      10    H6      19.046430   19.150121   22.177840 H          1 MOL1         0.0755
      11    H7      19.579527   17.482993   21.956895 H          1 MOL1         0.0755
      12    C5      20.893494   18.664721   23.226360 C.3        1 MOL1        -0.1855
      13    H8      21.238915   19.705052   23.304508 H          1 MOL1         0.0755
      14    H9      21.785653   18.047520   23.054067 H          1 MOL1         0.0755
      15    C6      20.238444   18.239209   24.566036 C.3        1 MOL1        -0.1958
      16    H10     19.864045   17.210797   24.494999 H          1 MOL1         0.0753
      17    H11     20.992490   18.248298   25.361843 H          1 MOL1         0.0753
      18    C7      19.093774   19.144680   25.011844 C.2        1 MOL1         0.6174
      19    O1      19.372492   20.231144   25.479838 O.co2      1 MOL1        -0.6695
      20    O2      17.955721   18.735376   24.892366 O.co2      1 MOL1        -0.6695
@<TRIPOS>BOND
    1     1     2    1
    2     1     3    1
    3     1     4    2
    4     4     5    1
    5     4     6    1
    6     6     7    1
    7     6     8    1
    8     6     9    1
    9     9    10    1
   10     9    11    1
   11     9    12    1
   12    12    13    1
   13    12    14    1
   14    12    15    1
   15    15    16    1
   16    15    17    1
   17    15    18    1
   18    18    19    1
   19    18    20    2
@<TRIPOS>SUBSTRUCTURE
       1 MOL1            1 RESIDUE      1      MOL     
@<SCITEGIC>MOL_PROPERTY
VM2 Rank
SciTegic.value.IntegerValue
18

@<SCITEGIC>MOL_PROPERTY
Conf_Id
SciTegic.value.IntegerValue
350

@<SCITEGIC>MOL_PROPERTY
Probability
SciTegic.value.DoubleValue
1.32

@<SCITEGIC>MOL_PROPERTY
Sum Probability
SciTegic.value.DoubleValue
84.93

@<SCITEGIC>MOL_PROPERTY
Delta G
SciTegic.value.DoubleValue
1.394

@<SCITEGIC>MOL_PROPERTY
G
SciTegic.value.DoubleValue
-20.496

@<SCITEGIC>MOL_PROPERTY
E
SciTegic.value.DoubleValue
-35.703

@<SCITEGIC>MOL_PROPERTY
-TS
SciTegic.value.DoubleValue
15.207

@<SCITEGIC>MOL_PROPERTY
U+W
SciTegic.value.DoubleValue
-51.799

@<SCITEGIC>MOL_PROPERTY
U
SciTegic.value.DoubleValue
9.411

@<SCITEGIC>MOL_PROPERTY
W
SciTegic.value.DoubleValue
-61.211

@<SCITEGIC>MOL_PROPERTY
W(PB)
SciTegic.value.DoubleValue
-63.462

@<SCITEGIC>MOL_PROPERTY
W(SA)
SciTegic.value.DoubleValue
2.251

@<SCITEGIC>MOL_PROPERTY
Valence
SciTegic.value.DoubleValue
9.329

@<SCITEGIC>MOL_PROPERTY
Coulomb
SciTegic.value.DoubleValue
-0.324

@<SCITEGIC>MOL_PROPERTY
VdW
SciTegic.value.DoubleValue
0.406

@<SCITEGIC>MOL_PROPERTY
VdW6
SciTegic.value.DoubleValue
-6.640

@<SCITEGIC>MOL_PROPERTY
VdW12
SciTegic.value.DoubleValue
7.047

@<SCITEGIC>MOL_PROPERTY
Bond
SciTegic.value.DoubleValue
0.105

@<SCITEGIC>MOL_PROPERTY
Angle
SciTegic.value.DoubleValue
2.401

@<SCITEGIC>MOL_PROPERTY
Pdih
SciTegic.value.DoubleValue
6.823

@<SCITEGIC>MOL_PROPERTY
Idih
SciTegic.value.DoubleValue
0.000

@<SCITEGIC>MOL_PROPERTY
Tether
SciTegic.value.DoubleValue
0.000

@<TRIPOS>MOLECULE
guest-s22_vm2.mol2 : vm2 ligand conformer 19
          20          19           1
SMALL
USER_CHARGES
 
@<TRIPOS>ATOM
       1    C1      20.144946   17.560551   19.500782 C.2        1 MOL1        -0.2535
       2    H1      19.714862   17.051167   20.360602 H          1 MOL1         0.0845
       3    H2      20.387488   16.945303   18.636022 H          1 MOL1         0.0845
       4    C2      20.373123   18.878758   19.487153 C.2        1 MOL1        -0.1324
       5    H3      20.806544   19.332364   18.596089 H          1 MOL1         0.0833
       6    C3      20.088813   19.861483   20.610755 C.3        1 MOL1        -0.1813
       7    H4      19.421254   20.646847   20.231758 H          1 MOL1         0.0753
       8    H5      21.023829   20.371391   20.878805 H          1 MOL1         0.0753
       9    C4      19.468333   19.238781   21.883303 C.3        1 MOL1        -0.1855
      10    H6      18.521906   18.743593   21.626397 H          1 MOL1         0.0755
      11    H7      20.141900   18.465093   22.277063 H          1 MOL1         0.0755
      12    C5      19.210215   20.302837   22.974146 C.3        1 MOL1        -0.1855
      13    H8      18.553262   21.084767   22.569724 H          1 MOL1         0.0755
      14    H9      20.155070   20.793282   23.246902 H          1 MOL1         0.0755
      15    C6      18.556000   19.705112   24.246829 C.3        1 MOL1        -0.1958
      16    H10     18.290089   20.514460   24.936916 H          1 MOL1         0.0753
      17    H11     17.623285   19.189921   23.987077 H          1 MOL1         0.0753
      18    C7      19.453559   18.733157   25.007481 C.2        1 MOL1         0.6174
      19    O1      20.357307   19.193374   25.677217 O.co2      1 MOL1        -0.6695
      20    O2      19.218705   17.543947   24.920336 O.co2      1 MOL1        -0.6695
@<TRIPOS>BOND
    1     1     2    1
    2     1     3    1
    3     1     4    2
    4     4     5    1
    5     4     6    1
    6     6     7    1
    7     6     8    1
    8     6     9    1
    9     9    10    1
   10     9    11    1
   11     9    12    1
   12    12    13    1
   13    12    14    1
   14    12    15    1
   15    15    16    1
   16    15    17    1
   17    15    18    1
   18    18    19    1
   19    18    20    2
@<TRIPOS>SUBSTRUCTURE
       1 MOL1            1 RESIDUE      1      MOL     
@<SCITEGIC>MOL_PROPERTY
VM2 Rank
SciTegic.value.IntegerValue
19

@<SCITEGIC>MOL_PROPERTY
Conf_Id
SciTegic.value.IntegerValue
682

@<SCITEGIC>MOL_PROPERTY
Probability
SciTegic.value.DoubleValue
1.30

@<SCITEGIC>MOL_PROPERTY
Sum Probability
SciTegic.value.DoubleValue
86.23

@<SCITEGIC>MOL_PROPERTY
Delta G
SciTegic.value.DoubleValue
1.402

@<SCITEGIC>MOL_PROPERTY
G
SciTegic.value.DoubleValue
-20.487

@<SCITEGIC>MOL_PROPERTY
E
SciTegic.value.DoubleValue
-36.060

@<SCITEGIC>MOL_PROPERTY
-TS
SciTegic.value.DoubleValue
15.573

@<SCITEGIC>MOL_PROPERTY
U+W
SciTegic.value.DoubleValue
-52.157

@<SCITEGIC>MOL_PROPERTY
U
SciTegic.value.DoubleValue
9.323

@<SCITEGIC>MOL_PROPERTY
W
SciTegic.value.DoubleValue
-61.480

@<SCITEGIC>MOL_PROPERTY
W(PB)
SciTegic.value.DoubleValue
-63.686

@<SCITEGIC>MOL_PROPERTY
W(SA)
SciTegic.value.DoubleValue
2.205

@<SCITEGIC>MOL_PROPERTY
Valence
SciTegic.value.DoubleValue
8.234

@<SCITEGIC>MOL_PROPERTY
Coulomb
SciTegic.value.DoubleValue
-0.022

@<SCITEGIC>MOL_PROPERTY
VdW
SciTegic.value.DoubleValue
1.111

@<SCITEGIC>MOL_PROPERTY
VdW6
SciTegic.value.DoubleValue
-7.367

@<SCITEGIC>MOL_PROPERTY
VdW12
SciTegic.value.DoubleValue
8.478

@<SCITEGIC>MOL_PROPERTY
Bond
SciTegic.value.DoubleValue
0.158

@<SCITEGIC>MOL_PROPERTY
Angle
SciTegic.value.DoubleValue
3.010

@<SCITEGIC>MOL_PROPERTY
Pdih
SciTegic.value.DoubleValue
5.066

@<SCITEGIC>MOL_PROPERTY
Idih
SciTegic.value.DoubleValue
0.000

@<SCITEGIC>MOL_PROPERTY
Tether
SciTegic.value.DoubleValue
0.000

@<TRIPOS>MOLECULE
guest-s22_vm2.mol2 : vm2 ligand conformer 20
          20          19           1
SMALL
USER_CHARGES
 
@<TRIPOS>ATOM
       1    C1      20.614515   17.727871   19.100835 C.2        1 MOL1        -0.2535
       2    H1      20.333130   17.020496   18.322563 H          1 MOL1         0.0845
       3    H2      21.623063   17.653675   19.504459 H          1 MOL1         0.0845
       4    C2      19.752300   18.647315   19.542273 C.2        1 MOL1        -0.1324
       5    H3      18.746902   18.704015   19.125625 H          1 MOL1         0.0833
       6    C3      20.071430   19.661535   20.617996 C.3        1 MOL1        -0.1813
       7    H4      19.766660   20.661614   20.281784 H          1 MOL1         0.0753
       8    H5      21.155304   19.703079   20.792008 H          1 MOL1         0.0753
       9    C4      19.352205   19.317738   21.939200 C.3        1 MOL1        -0.1855
      10    H6      18.267806   19.280049   21.766840 H          1 MOL1         0.0755
      11    H7      19.656771   18.313761   22.266230 H          1 MOL1         0.0755
      12    C5      19.665354   20.347123   23.048542 C.3        1 MOL1        -0.1855
      13    H8      19.375407   21.349393   22.705095 H          1 MOL1         0.0755
      14    H9      20.748222   20.377167   23.233494 H          1 MOL1         0.0755
      15    C6      18.926163   20.036818   24.376016 C.3        1 MOL1        -0.1958
      16    H10     19.088751   20.856091   25.086178 H          1 MOL1         0.0753
      17    H11     17.844884   19.976733   24.202584 H          1 MOL1         0.0753
      18    C7      19.383187   18.748167   25.053806 C.2        1 MOL1         0.6174
      19    O1      20.450153   18.754915   25.635737 O.co2      1 MOL1        -0.6695
      20    O2      18.655694   17.776519   24.993595 O.co2      1 MOL1        -0.6695
@<TRIPOS>BOND
    1     1     2    1
    2     1     3    1
    3     1     4    2
    4     4     5    1
    5     4     6    1
    6     6     7    1
    7     6     8    1
    8     6     9    1
    9     9    10    1
   10     9    11    1
   11     9    12    1
   12    12    13    1
   13    12    14    1
   14    12    15    1
   15    15    16    1
   16    15    17    1
   17    15    18    1
   18    18    19    1
   19    18    20    2
@<TRIPOS>SUBSTRUCTURE
       1 MOL1            1 RESIDUE      1      MOL     
@<SCITEGIC>MOL_PROPERTY
VM2 Rank
SciTegic.value.IntegerValue
20

@<SCITEGIC>MOL_PROPERTY
Conf_Id
SciTegic.value.IntegerValue
490

@<SCITEGIC>MOL_PROPERTY
Probability
SciTegic.value.DoubleValue
1.29

@<SCITEGIC>MOL_PROPERTY
Sum Probability
SciTegic.value.DoubleValue
87.51

@<SCITEGIC>MOL_PROPERTY
Delta G
SciTegic.value.DoubleValue
1.408

@<SCITEGIC>MOL_PROPERTY
G
SciTegic.value.DoubleValue
-20.481

@<SCITEGIC>MOL_PROPERTY
E
SciTegic.value.DoubleValue
-35.688

@<SCITEGIC>MOL_PROPERTY
-TS
SciTegic.value.DoubleValue
15.207

@<SCITEGIC>MOL_PROPERTY
U+W
SciTegic.value.DoubleValue
-51.785

@<SCITEGIC>MOL_PROPERTY
U
SciTegic.value.DoubleValue
9.412

@<SCITEGIC>MOL_PROPERTY
W
SciTegic.value.DoubleValue
-61.197

@<SCITEGIC>MOL_PROPERTY
W(PB)
SciTegic.value.DoubleValue
-63.440

@<SCITEGIC>MOL_PROPERTY
W(SA)
SciTegic.value.DoubleValue
2.243

@<SCITEGIC>MOL_PROPERTY
Valence
SciTegic.value.DoubleValue
9.329

@<SCITEGIC>MOL_PROPERTY
Coulomb
SciTegic.value.DoubleValue
-0.324

@<SCITEGIC>MOL_PROPERTY
VdW
SciTegic.value.DoubleValue
0.406

@<SCITEGIC>MOL_PROPERTY
VdW6
SciTegic.value.DoubleValue
-6.640

@<SCITEGIC>MOL_PROPERTY
VdW12
SciTegic.value.DoubleValue
7.047

@<SCITEGIC>MOL_PROPERTY
Bond
SciTegic.value.DoubleValue
0.105

@<SCITEGIC>MOL_PROPERTY
Angle
SciTegic.value.DoubleValue
2.401

@<SCITEGIC>MOL_PROPERTY
Pdih
SciTegic.value.DoubleValue
6.822

@<SCITEGIC>MOL_PROPERTY
Idih
SciTegic.value.DoubleValue
0.000

@<SCITEGIC>MOL_PROPERTY
Tether
SciTegic.value.DoubleValue
0.000

@<TRIPOS>MOLECULE
guest-s22_vm2.mol2 : vm2 ligand conformer 21
          20          19           1
SMALL
USER_CHARGES
 
@<TRIPOS>ATOM
       1    C1      20.785516   17.753699   19.583378 C.2        1 MOL1        -0.2535
       2    H1      21.209513   17.502001   20.553230 H          1 MOL1         0.0845
       3    H2      21.126311   17.168010   18.731328 H          1 MOL1         0.0845
       4    C2      19.887059   18.732194   19.424486 C.2        1 MOL1        -0.1324
       5    H3      19.498015   18.937642   18.427470 H          1 MOL1         0.0833
       6    C3      19.319586   19.629609   20.511539 C.3        1 MOL1        -0.1813
       7    H4      18.226079   19.528045   20.518015 H          1 MOL1         0.0753
       8    H5      19.518294   20.676092   20.244222 H          1 MOL1         0.0753
       9    C4      19.862246   19.357527   21.934079 C.3        1 MOL1        -0.1855
      10    H6      19.648915   18.316482   22.213452 H          1 MOL1         0.0755
      11    H7      20.954336   19.476840   21.940050 H          1 MOL1         0.0755
      12    C5      19.237004   20.310894   22.977601 C.3        1 MOL1        -0.1855
      13    H8      18.145060   20.187446   22.987655 H          1 MOL1         0.0755
      14    H9      19.435040   21.350528   22.683492 H          1 MOL1         0.0755
      15    C6      19.793153   20.077908   24.406381 C.3        1 MOL1        -0.1958
      16    H10     20.885766   20.173009   24.407827 H          1 MOL1         0.0753
      17    H11     19.406299   20.850816   25.080866 H          1 MOL1         0.0753
      18    C7      19.421511   18.723507   25.003360 C.2        1 MOL1         0.6174
      19    O1      20.278234   17.863202   25.056921 O.co2      1 MOL1        -0.6695
      20    O2      18.286691   18.569461   25.410254 O.co2      1 MOL1        -0.6695
@<TRIPOS>BOND
    1     1     2    1
    2     1     3    1
    3     1     4    2
    4     4     5    1
    5     4     6    1
    6     6     7    1
    7     6     8    1
    8     6     9    1
    9     9    10    1
   10     9    11    1
   11     9    12    1
   12    12    13    1
   13    12    14    1
   14    12    15    1
   15    15    16    1
   16    15    17    1
   17    15    18    1
   18    18    19    1
   19    18    20    2
@<TRIPOS>SUBSTRUCTURE
       1 MOL1            1 RESIDUE      1      MOL     
@<SCITEGIC>MOL_PROPERTY
VM2 Rank
SciTegic.value.IntegerValue
21

@<SCITEGIC>MOL_PROPERTY
Conf_Id
SciTegic.value.IntegerValue
941

@<SCITEGIC>MOL_PROPERTY
Probability
SciTegic.value.DoubleValue
1.15

@<SCITEGIC>MOL_PROPERTY
Sum Probability
SciTegic.value.DoubleValue
88.67

@<SCITEGIC>MOL_PROPERTY
Delta G
SciTegic.value.DoubleValue
1.473

@<SCITEGIC>MOL_PROPERTY
G
SciTegic.value.DoubleValue
-20.416

@<SCITEGIC>MOL_PROPERTY
E
SciTegic.value.DoubleValue
-35.989

@<SCITEGIC>MOL_PROPERTY
-TS
SciTegic.value.DoubleValue
15.573

@<SCITEGIC>MOL_PROPERTY
U+W
SciTegic.value.DoubleValue
-52.086

@<SCITEGIC>MOL_PROPERTY
U
SciTegic.value.DoubleValue
9.323

@<SCITEGIC>MOL_PROPERTY
W
SciTegic.value.DoubleValue
-61.409

@<SCITEGIC>MOL_PROPERTY
W(PB)
SciTegic.value.DoubleValue
-63.641

@<SCITEGIC>MOL_PROPERTY
W(SA)
SciTegic.value.DoubleValue
2.232

@<SCITEGIC>MOL_PROPERTY
Valence
SciTegic.value.DoubleValue
8.234

@<SCITEGIC>MOL_PROPERTY
Coulomb
SciTegic.value.DoubleValue
-0.022

@<SCITEGIC>MOL_PROPERTY
VdW
SciTegic.value.DoubleValue
1.111

@<SCITEGIC>MOL_PROPERTY
VdW6
SciTegic.value.DoubleValue
-7.367

@<SCITEGIC>MOL_PROPERTY
VdW12
SciTegic.value.DoubleValue
8.478

@<SCITEGIC>MOL_PROPERTY
Bond
SciTegic.value.DoubleValue
0.158

@<SCITEGIC>MOL_PROPERTY
Angle
SciTegic.value.DoubleValue
3.010

@<SCITEGIC>MOL_PROPERTY
Pdih
SciTegic.value.DoubleValue
5.066

@<SCITEGIC>MOL_PROPERTY
Idih
SciTegic.value.DoubleValue
0.000

@<SCITEGIC>MOL_PROPERTY
Tether
SciTegic.value.DoubleValue
0.000

@<TRIPOS>MOLECULE
guest-s22_vm2.mol2 : vm2 ligand conformer 22
          20          19           1
SMALL
USER_CHARGES
 
@<TRIPOS>ATOM
       1    C1      21.101022   18.480913   19.142914 C.2        1 MOL1        -0.2535
       2    H1      20.425171   18.488516   18.289313 H          1 MOL1         0.0845
       3    H2      22.071128   18.005151   19.009853 H          1 MOL1         0.0845
       4    C2      20.756019   19.029901   20.310503 C.2        1 MOL1        -0.1324
       5    H3      21.448317   19.013509   21.151918 H          1 MOL1         0.0833
       6    C3      19.429469   19.712143   20.567960 C.3        1 MOL1        -0.1813
       7    H4      18.961477   19.983215   19.611975 H          1 MOL1         0.0753
       8    H5      19.591602   20.657615   21.100730 H          1 MOL1         0.0753
       9    C4      18.447428   18.814169   21.358324 C.3        1 MOL1        -0.1855
      10    H6      17.488668   19.339711   21.464522 H          1 MOL1         0.0755
      11    H7      18.238217   17.913041   20.765680 H          1 MOL1         0.0755
      12    C5      18.948101   18.384565   22.760144 C.3        1 MOL1        -0.1855
      13    H8      19.870843   17.796135   22.665771 H          1 MOL1         0.0755
      14    H9      18.202261   17.713494   23.208117 H          1 MOL1         0.0755
      15    C6      19.189739   19.574785   23.724310 C.3        1 MOL1        -0.1958
      16    H10     19.995197   20.216587   23.349921 H          1 MOL1         0.0753
      17    H11     18.286868   20.192653   23.797222 H          1 MOL1         0.0753
      18    C7      19.571203   19.125789   25.130248 C.2        1 MOL1         0.6174
      19    O1      20.748749   18.959075   25.379915 O.co2      1 MOL1        -0.6695
      20    O2      18.679270   18.936660   25.933682 O.co2      1 MOL1        -0.6695
@<TRIPOS>BOND
    1     1     2    1
    2     1     3    1
    3     1     4    2
    4     4     5    1
    5     4     6    1
    6     6     7    1
    7     6     8    1
    8     6     9    1
    9     9    10    1
   10     9    11    1
   11     9    12    1
   12    12    13    1
   13    12    14    1
   14    12    15    1
   15    15    16    1
   16    15    17    1
   17    15    18    1
   18    18    19    1
   19    18    20    2
@<TRIPOS>SUBSTRUCTURE
       1 MOL1            1 RESIDUE      1      MOL     
@<SCITEGIC>MOL_PROPERTY
VM2 Rank
SciTegic.value.IntegerValue
22

@<SCITEGIC>MOL_PROPERTY
Conf_Id
SciTegic.value.IntegerValue
927

@<SCITEGIC>MOL_PROPERTY
Probability
SciTegic.value.DoubleValue
1.02

@<SCITEGIC>MOL_PROPERTY
Sum Probability
SciTegic.value.DoubleValue
89.69

@<SCITEGIC>MOL_PROPERTY
Delta G
SciTegic.value.DoubleValue
1.543

@<SCITEGIC>MOL_PROPERTY
G
SciTegic.value.DoubleValue
-20.346

@<SCITEGIC>MOL_PROPERTY
E
SciTegic.value.DoubleValue
-35.613

@<SCITEGIC>MOL_PROPERTY
-TS
SciTegic.value.DoubleValue
15.267

@<SCITEGIC>MOL_PROPERTY
U+W
SciTegic.value.DoubleValue
-51.709

@<SCITEGIC>MOL_PROPERTY
U
SciTegic.value.DoubleValue
8.691

@<SCITEGIC>MOL_PROPERTY
W
SciTegic.value.DoubleValue
-60.400

@<SCITEGIC>MOL_PROPERTY
W(PB)
SciTegic.value.DoubleValue
-62.593

@<SCITEGIC>MOL_PROPERTY
W(SA)
SciTegic.value.DoubleValue
2.193

@<SCITEGIC>MOL_PROPERTY
Valence
SciTegic.value.DoubleValue
9.775

@<SCITEGIC>MOL_PROPERTY
Coulomb
SciTegic.value.DoubleValue
-1.698

@<SCITEGIC>MOL_PROPERTY
VdW
SciTegic.value.DoubleValue
0.614

@<SCITEGIC>MOL_PROPERTY
VdW6
SciTegic.value.DoubleValue
-7.233

@<SCITEGIC>MOL_PROPERTY
VdW12
SciTegic.value.DoubleValue
7.847

@<SCITEGIC>MOL_PROPERTY
Bond
SciTegic.value.DoubleValue
0.151

@<SCITEGIC>MOL_PROPERTY
Angle
SciTegic.value.DoubleValue
2.692

@<SCITEGIC>MOL_PROPERTY
Pdih
SciTegic.value.DoubleValue
6.931

@<SCITEGIC>MOL_PROPERTY
Idih
SciTegic.value.DoubleValue
0.001

@<SCITEGIC>MOL_PROPERTY
Tether
SciTegic.value.DoubleValue
0.000

@<TRIPOS>MOLECULE
guest-s22_vm2.mol2 : vm2 ligand conformer 23
          20          19           1
SMALL
USER_CHARGES
 
@<TRIPOS>ATOM
       1    C1      19.597255   18.027666   18.948944 C.2        1 MOL1        -0.2535
       2    H1      19.105473   17.111211   18.627353 H          1 MOL1         0.0845
       3    H2      20.336546   18.461875   18.277841 H          1 MOL1         0.0845
       4    C2      19.304503   18.592398   20.123277 C.2        1 MOL1        -0.1324
       5    H3      18.559654   18.142686   20.779390 H          1 MOL1         0.0833
       6    C3      19.942246   19.866690   20.634103 C.3        1 MOL1        -0.1813
       7    H4      19.172854   20.531395   21.046718 H          1 MOL1         0.0753
       8    H5      20.394535   20.415137   19.796819 H          1 MOL1         0.0753
       9    C4      21.038347   19.595082   21.692514 C.3        1 MOL1        -0.1855
      10    H6      21.835468   18.997246   21.229675 H          1 MOL1         0.0755
      11    H7      21.500242   20.548805   21.981926 H          1 MOL1         0.0755
      12    C5      20.542164   18.865051   22.965775 C.3        1 MOL1        -0.1855
      13    H8      21.404178   18.678447   23.621063 H          1 MOL1         0.0755
      14    H9      20.140645   17.877589   22.700615 H          1 MOL1         0.0755
      15    C6      19.475169   19.660906   23.761239 C.3        1 MOL1        -0.1958
      16    H10     19.849746   20.663587   23.999098 H          1 MOL1         0.0753
      17    H11     18.563971   19.785632   23.165422 H          1 MOL1         0.0753
      18    C7      19.084422   18.979067   25.067450 C.2        1 MOL1         0.6174
      19    O1      19.718856   19.249917   26.067927 O.co2      1 MOL1        -0.6695
      20    O2      18.168037   18.181224   25.046771 O.co2      1 MOL1        -0.6695
@<TRIPOS>BOND
    1     1     2    1
    2     1     3    1
    3     1     4    2
    4     4     5    1
    5     4     6    1
    6     6     7    1
    7     6     8    1
    8     6     9    1
    9     9    10    1
   10     9    11    1
   11     9    12    1
   12    12    13    1
   13    12    14    1
   14    12    15    1
   15    15    16    1
   16    15    17    1
   17    15    18    1
   18    18    19    1
   19    18    20    2
@<TRIPOS>SUBSTRUCTURE
       1 MOL1            1 RESIDUE      1      MOL     
@<SCITEGIC>MOL_PROPERTY
VM2 Rank
SciTegic.value.IntegerValue
23

@<SCITEGIC>MOL_PROPERTY
Conf_Id
SciTegic.value.IntegerValue
923

@<SCITEGIC>MOL_PROPERTY
Probability
SciTegic.value.DoubleValue
0.99

@<SCITEGIC>MOL_PROPERTY
Sum Probability
SciTegic.value.DoubleValue
90.68

@<SCITEGIC>MOL_PROPERTY
Delta G
SciTegic.value.DoubleValue
1.565

@<SCITEGIC>MOL_PROPERTY
G
SciTegic.value.DoubleValue
-20.324

@<SCITEGIC>MOL_PROPERTY
E
SciTegic.value.DoubleValue
-35.591

@<SCITEGIC>MOL_PROPERTY
-TS
SciTegic.value.DoubleValue
15.266

@<SCITEGIC>MOL_PROPERTY
U+W
SciTegic.value.DoubleValue
-51.687

@<SCITEGIC>MOL_PROPERTY
U
SciTegic.value.DoubleValue
8.691

@<SCITEGIC>MOL_PROPERTY
W
SciTegic.value.DoubleValue
-60.378

@<SCITEGIC>MOL_PROPERTY
W(PB)
SciTegic.value.DoubleValue
-62.583

@<SCITEGIC>MOL_PROPERTY
W(SA)
SciTegic.value.DoubleValue
2.205

@<SCITEGIC>MOL_PROPERTY
Valence
SciTegic.value.DoubleValue
9.775

@<SCITEGIC>MOL_PROPERTY
Coulomb
SciTegic.value.DoubleValue
-1.698

@<SCITEGIC>MOL_PROPERTY
VdW
SciTegic.value.DoubleValue
0.614

@<SCITEGIC>MOL_PROPERTY
VdW6
SciTegic.value.DoubleValue
-7.233

@<SCITEGIC>MOL_PROPERTY
VdW12
SciTegic.value.DoubleValue
7.847

@<SCITEGIC>MOL_PROPERTY
Bond
SciTegic.value.DoubleValue
0.151

@<SCITEGIC>MOL_PROPERTY
Angle
SciTegic.value.DoubleValue
2.692

@<SCITEGIC>MOL_PROPERTY
Pdih
SciTegic.value.DoubleValue
6.931

@<SCITEGIC>MOL_PROPERTY
Idih
SciTegic.value.DoubleValue
0.001

@<SCITEGIC>MOL_PROPERTY
Tether
SciTegic.value.DoubleValue
0.000

@<TRIPOS>MOLECULE
guest-s22_vm2.mol2 : vm2 ligand conformer 24
          20          19           1
SMALL
USER_CHARGES
 
@<TRIPOS>ATOM
       1    C1      20.257478   18.201953   18.303876 C.2        1 MOL1        -0.2535
       2    H1      19.653932   17.308826   18.457646 H          1 MOL1         0.0845
       3    H2      20.905550   18.224126   17.429354 H          1 MOL1         0.0845
       4    C2      20.209638   19.231148   19.153652 C.2        1 MOL1        -0.1324
       5    H3      20.822553   20.115725   18.981850 H          1 MOL1         0.0833
       6    C3      19.334689   19.272418   20.386699 C.3        1 MOL1        -0.1813
       7    H4      18.576140   18.479092   20.341517 H          1 MOL1         0.0753
       8    H5      18.792092   20.226665   20.420525 H          1 MOL1         0.0753
       9    C4      20.173932   19.108362   21.671078 C.3        1 MOL1        -0.1855
      10    H6      20.717796   18.154459   21.630264 H          1 MOL1         0.0755
      11    H7      20.929443   19.904699   21.718109 H          1 MOL1         0.0755
      12    C5      19.295815   19.151119   22.940801 C.3        1 MOL1        -0.1855
      13    H8      18.540204   18.354582   22.894716 H          1 MOL1         0.0755
      14    H9      18.750683   20.104374   22.981551 H          1 MOL1         0.0755
      15    C6      20.140187   18.985357   24.232296 C.3        1 MOL1        -0.1958
      16    H10     20.682048   18.032816   24.201214 H          1 MOL1         0.0753
      17    H11     20.892415   19.780936   24.288107 H          1 MOL1         0.0753
      18    C7      19.346270   19.015921   25.539230 C.2        1 MOL1         0.6174
      19    O1      19.973606   18.890487   26.572116 O.co2      1 MOL1        -0.6695
      20    O2      18.139384   19.161233   25.508252 O.co2      1 MOL1        -0.6695
@<TRIPOS>BOND
    1     1     2    1
    2     1     3    1
    3     1     4    2
    4     4     5    1
    5     4     6    1
    6     6     7    1
    7     6     8    1
    8     6     9    1
    9     9    10    1
   10     9    11    1
   11     9    12    1
   12    12    13    1
   13    12    14    1
   14    12    15    1
   15    15    16    1
   16    15    17    1
   17    15    18    1
   18    18    19    1
   19    18    20    2
@<TRIPOS>SUBSTRUCTURE
       1 MOL1            1 RESIDUE      1      MOL     
@<SCITEGIC>MOL_PROPERTY
VM2 Rank
SciTegic.value.IntegerValue
24

@<SCITEGIC>MOL_PROPERTY
Conf_Id
SciTegic.value.IntegerValue
33

@<SCITEGIC>MOL_PROPERTY
Probability
SciTegic.value.DoubleValue
0.84

@<SCITEGIC>MOL_PROPERTY
Sum Probability
SciTegic.value.DoubleValue
91.52

@<SCITEGIC>MOL_PROPERTY
Delta G
SciTegic.value.DoubleValue
1.658

@<SCITEGIC>MOL_PROPERTY
G
SciTegic.value.DoubleValue
-20.231

@<SCITEGIC>MOL_PROPERTY
E
SciTegic.value.DoubleValue
-35.649

@<SCITEGIC>MOL_PROPERTY
-TS
SciTegic.value.DoubleValue
15.418

@<SCITEGIC>MOL_PROPERTY
U+W
SciTegic.value.DoubleValue
-51.745

@<SCITEGIC>MOL_PROPERTY
U
SciTegic.value.DoubleValue
7.593

@<SCITEGIC>MOL_PROPERTY
W
SciTegic.value.DoubleValue
-59.338

@<SCITEGIC>MOL_PROPERTY
W(PB)
SciTegic.value.DoubleValue
-61.574

@<SCITEGIC>MOL_PROPERTY
W(SA)
SciTegic.value.DoubleValue
2.236

@<SCITEGIC>MOL_PROPERTY
Valence
SciTegic.value.DoubleValue
9.570

@<SCITEGIC>MOL_PROPERTY
Coulomb
SciTegic.value.DoubleValue
-3.091

@<SCITEGIC>MOL_PROPERTY
VdW
SciTegic.value.DoubleValue
1.114

@<SCITEGIC>MOL_PROPERTY
VdW6
SciTegic.value.DoubleValue
-6.064

@<SCITEGIC>MOL_PROPERTY
VdW12
SciTegic.value.DoubleValue
7.178

@<SCITEGIC>MOL_PROPERTY
Bond
SciTegic.value.DoubleValue
0.117

@<SCITEGIC>MOL_PROPERTY
Angle
SciTegic.value.DoubleValue
2.692

@<SCITEGIC>MOL_PROPERTY
Pdih
SciTegic.value.DoubleValue
6.761

@<SCITEGIC>MOL_PROPERTY
Idih
SciTegic.value.DoubleValue
0.000

@<SCITEGIC>MOL_PROPERTY
Tether
SciTegic.value.DoubleValue
0.000

@<TRIPOS>MOLECULE
guest-s22_vm2.mol2 : vm2 ligand conformer 25
          20          19           1
SMALL
USER_CHARGES
 
@<TRIPOS>ATOM
       1    C1      19.096451   17.564147   20.121232 C.2        1 MOL1        -0.2535
       2    H1      18.165301   17.717294   20.664208 H          1 MOL1         0.0845
       3    H2      19.285572   16.569497   19.721386 H          1 MOL1         0.0845
       4    C2      19.977798   18.553938   19.955355 C.2        1 MOL1        -0.1324
       5    H3      20.905680   18.378680   19.411675 H          1 MOL1         0.0833
       6    C3      19.785319   19.960061   20.482174 C.3        1 MOL1        -0.1813
       7    H4      18.750243   20.111504   20.814198 H          1 MOL1         0.0753
       8    H5      19.946921   20.673078   19.662912 H          1 MOL1         0.0753
       9    C4      20.766295   20.296915   21.630837 C.3        1 MOL1        -0.1855
      10    H6      21.795127   20.208618   21.255930 H          1 MOL1         0.0755
      11    H7      20.635040   21.349028   21.918123 H          1 MOL1         0.0755
      12    C5      20.613793   19.404655   22.888021 C.3        1 MOL1        -0.1855
      13    H8      21.402923   19.670285   23.604910 H          1 MOL1         0.0755
      14    H9      20.780169   18.351413   22.623469 H          1 MOL1         0.0755
      15    C6      19.236851   19.550177   23.586371 C.3        1 MOL1        -0.1958
      16    H10     19.036670   20.603909   23.813630 H          1 MOL1         0.0753
      17    H11     18.433463   19.199630   22.928743 H          1 MOL1         0.0753
      18    C7      19.149138   18.761839   24.888253 C.2        1 MOL1         0.6174
      19    O1      19.532068   19.297989   25.909477 O.co2      1 MOL1        -0.6695
      20    O2      18.713287   17.628279   24.846282 O.co2      1 MOL1        -0.6695
@<TRIPOS>BOND
    1     1     2    1
    2     1     3    1
    3     1     4    2
    4     4     5    1
    5     4     6    1
    6     6     7    1
    7     6     8    1
    8     6     9    1
    9     9    10    1
   10     9    11    1
   11     9    12    1
   12    12    13    1
   13    12    14    1
   14    12    15    1
   15    15    16    1
   16    15    17    1
   17    15    18    1
   18    18    19    1
   19    18    20    2
@<TRIPOS>SUBSTRUCTURE
       1 MOL1            1 RESIDUE      1      MOL     
@<SCITEGIC>MOL_PROPERTY
VM2 Rank
SciTegic.value.IntegerValue
25

@<SCITEGIC>MOL_PROPERTY
Conf_Id
SciTegic.value.IntegerValue
946

@<SCITEGIC>MOL_PROPERTY
Probability
SciTegic.value.DoubleValue
0.70

@<SCITEGIC>MOL_PROPERTY
Sum Probability
SciTegic.value.DoubleValue
92.22

@<SCITEGIC>MOL_PROPERTY
Delta G
SciTegic.value.DoubleValue
1.773

@<SCITEGIC>MOL_PROPERTY
G
SciTegic.value.DoubleValue
-20.116

@<SCITEGIC>MOL_PROPERTY
E
SciTegic.value.DoubleValue
-35.471

@<SCITEGIC>MOL_PROPERTY
-TS
SciTegic.value.DoubleValue
15.354

@<SCITEGIC>MOL_PROPERTY
U+W
SciTegic.value.DoubleValue
-51.567

@<SCITEGIC>MOL_PROPERTY
U
SciTegic.value.DoubleValue
9.796

@<SCITEGIC>MOL_PROPERTY
W
SciTegic.value.DoubleValue
-61.363

@<SCITEGIC>MOL_PROPERTY
W(PB)
SciTegic.value.DoubleValue
-63.525

@<SCITEGIC>MOL_PROPERTY
W(SA)
SciTegic.value.DoubleValue
2.162

@<SCITEGIC>MOL_PROPERTY
Valence
SciTegic.value.DoubleValue
9.746

@<SCITEGIC>MOL_PROPERTY
Coulomb
SciTegic.value.DoubleValue
-0.310

@<SCITEGIC>MOL_PROPERTY
VdW
SciTegic.value.DoubleValue
0.360

@<SCITEGIC>MOL_PROPERTY
VdW6
SciTegic.value.DoubleValue
-7.585

@<SCITEGIC>MOL_PROPERTY
VdW12
SciTegic.value.DoubleValue
7.945

@<SCITEGIC>MOL_PROPERTY
Bond
SciTegic.value.DoubleValue
0.150

@<SCITEGIC>MOL_PROPERTY
Angle
SciTegic.value.DoubleValue
2.663

@<SCITEGIC>MOL_PROPERTY
Pdih
SciTegic.value.DoubleValue
6.933

@<SCITEGIC>MOL_PROPERTY
Idih
SciTegic.value.DoubleValue
0.000

@<SCITEGIC>MOL_PROPERTY
Tether
SciTegic.value.DoubleValue
0.000

@<TRIPOS>MOLECULE
guest-s22_vm2.mol2 : vm2 ligand conformer 26
          20          19           1
SMALL
USER_CHARGES
 
@<TRIPOS>ATOM
       1    C1      19.008612   17.620291   20.111000 C.2        1 MOL1        -0.2535
       2    H1      19.435902   16.905420   20.812215 H          1 MOL1         0.0845
       3    H2      18.103304   17.324959   19.583583 H          1 MOL1         0.0845
       4    C2      19.567125   18.816365   19.907414 C.2        1 MOL1        -0.1324
       5    H3      19.121415   19.518810   19.203720 H          1 MOL1         0.0833
       6    C3      20.822831   19.297120   20.603006 C.3        1 MOL1        -0.1813
       7    H4      21.532251   19.660126   19.847594 H          1 MOL1         0.0753
       8    H5      21.325396   18.466040   21.114172 H          1 MOL1         0.0753
       9    C4      20.538446   20.442467   21.604265 C.3        1 MOL1        -0.1855
      10    H6      21.490356   20.802519   22.017706 H          1 MOL1         0.0755
      11    H7      20.102124   21.290295   21.058683 H          1 MOL1         0.0755
      12    C5      19.592551   20.057150   22.769046 C.3        1 MOL1        -0.1855
      13    H8      18.621658   19.730455   22.372028 H          1 MOL1         0.0755
      14    H9      19.392834   20.954566   23.370691 H          1 MOL1         0.0755
      15    C6      20.168947   18.954795   23.695016 C.3        1 MOL1        -0.1958
      16    H10     20.288550   18.014645   23.144924 H          1 MOL1         0.0753
      17    H11     21.160089   19.247468   24.061142 H          1 MOL1         0.0753
      18    C7      19.282693   18.676538   24.903816 C.2        1 MOL1         0.6174
      19    O1      19.441095   19.356147   25.898818 O.co2      1 MOL1        -0.6695
      20    O2      18.448701   17.797126   24.815620 O.co2      1 MOL1        -0.6695
@<TRIPOS>BOND
    1     1     2    1
    2     1     3    1
    3     1     4    2
    4     4     5    1
    5     4     6    1
    6     6     7    1
    7     6     8    1
    8     6     9    1
    9     9    10    1
   10     9    11    1
   11     9    12    1
   12    12    13    1
   13    12    14    1
   14    12    15    1
   15    15    16    1
   16    15    17    1
   17    15    18    1
   18    18    19    1
   19    18    20    2
@<TRIPOS>SUBSTRUCTURE
       1 MOL1            1 RESIDUE      1      MOL     
@<SCITEGIC>MOL_PROPERTY
VM2 Rank
SciTegic.value.IntegerValue
26

@<SCITEGIC>MOL_PROPERTY
Conf_Id
SciTegic.value.IntegerValue
765

@<SCITEGIC>MOL_PROPERTY
Probability
SciTegic.value.DoubleValue
0.65

@<SCITEGIC>MOL_PROPERTY
Sum Probability
SciTegic.value.DoubleValue
92.87

@<SCITEGIC>MOL_PROPERTY
Delta G
SciTegic.value.DoubleValue
1.815

@<SCITEGIC>MOL_PROPERTY
G
SciTegic.value.DoubleValue
-20.074

@<SCITEGIC>MOL_PROPERTY
E
SciTegic.value.DoubleValue
-35.428

@<SCITEGIC>MOL_PROPERTY
-TS
SciTegic.value.DoubleValue
15.354

@<SCITEGIC>MOL_PROPERTY
U+W
SciTegic.value.DoubleValue
-51.525

@<SCITEGIC>MOL_PROPERTY
U
SciTegic.value.DoubleValue
9.796

@<SCITEGIC>MOL_PROPERTY
W
SciTegic.value.DoubleValue
-61.320

@<SCITEGIC>MOL_PROPERTY
W(PB)
SciTegic.value.DoubleValue
-63.481

@<SCITEGIC>MOL_PROPERTY
W(SA)
SciTegic.value.DoubleValue
2.161

@<SCITEGIC>MOL_PROPERTY
Valence
SciTegic.value.DoubleValue
9.746

@<SCITEGIC>MOL_PROPERTY
Coulomb
SciTegic.value.DoubleValue
-0.310

@<SCITEGIC>MOL_PROPERTY
VdW
SciTegic.value.DoubleValue
0.360

@<SCITEGIC>MOL_PROPERTY
VdW6
SciTegic.value.DoubleValue
-7.585

@<SCITEGIC>MOL_PROPERTY
VdW12
SciTegic.value.DoubleValue
7.944

@<SCITEGIC>MOL_PROPERTY
Bond
SciTegic.value.DoubleValue
0.150

@<SCITEGIC>MOL_PROPERTY
Angle
SciTegic.value.DoubleValue
2.663

@<SCITEGIC>MOL_PROPERTY
Pdih
SciTegic.value.DoubleValue
6.933

@<SCITEGIC>MOL_PROPERTY
Idih
SciTegic.value.DoubleValue
0.000

@<SCITEGIC>MOL_PROPERTY
Tether
SciTegic.value.DoubleValue
0.000

@<TRIPOS>MOLECULE
guest-s22_vm2.mol2 : vm2 ligand conformer 27
          20          19           1
SMALL
USER_CHARGES
 
@<TRIPOS>ATOM
       1    C1      20.271610   17.571009   19.444869 C.2        1 MOL1        -0.2535
       2    H1      19.734767   16.719521   19.030206 H          1 MOL1         0.0845
       3    H2      21.359654   17.535183   19.425671 H          1 MOL1         0.0845
       4    C2      19.617197   18.615379   19.959391 C.2        1 MOL1        -0.1324
       5    H3      18.527736   18.631933   19.966202 H          1 MOL1         0.0833
       6    C3      20.295300   19.834637   20.547067 C.3        1 MOL1        -0.1813
       7    H4      19.799454   20.747050   20.189806 H          1 MOL1         0.0753
       8    H5      21.332953   19.889227   20.190952 H          1 MOL1         0.0753
       9    C4      20.302703   19.815778   22.092308 C.3        1 MOL1        -0.1855
      10    H6      20.789968   18.894995   22.442063 H          1 MOL1         0.0755
      11    H7      20.917284   20.651443   22.453833 H          1 MOL1         0.0755
      12    C5      18.885116   19.927374   22.702002 C.3        1 MOL1        -0.1855
      13    H8      18.274424   19.067483   22.394663 H          1 MOL1         0.0755
      14    H9      18.390290   20.824801   22.306928 H          1 MOL1         0.0755
      15    C6      18.908187   20.005981   24.250594 C.3        1 MOL1        -0.1958
      16    H10     19.533138   20.845373   24.578648 H          1 MOL1         0.0753
      17    H11     17.895320   20.200125   24.622633 H          1 MOL1         0.0753
      18    C7      19.407783   18.733201   24.928292 C.2        1 MOL1         0.6174
      19    O1      20.537636   18.724687   25.376047 O.co2      1 MOL1        -0.6695
      20    O2      18.645468   17.789953   25.007431 O.co2      1 MOL1        -0.6695
@<TRIPOS>BOND
    1     1     2    1
    2     1     3    1
    3     1     4    2
    4     4     5    1
    5     4     6    1
    6     6     7    1
    7     6     8    1
    8     6     9    1
    9     9    10    1
   10     9    11    1
   11     9    12    1
   12    12    13    1
   13    12    14    1
   14    12    15    1
   15    15    16    1
   16    15    17    1
   17    15    18    1
   18    18    19    1
   19    18    20    2
@<TRIPOS>SUBSTRUCTURE
       1 MOL1            1 RESIDUE      1      MOL     
@<SCITEGIC>MOL_PROPERTY
VM2 Rank
SciTegic.value.IntegerValue
27

@<SCITEGIC>MOL_PROPERTY
Conf_Id
SciTegic.value.IntegerValue
164

@<SCITEGIC>MOL_PROPERTY
Probability
SciTegic.value.DoubleValue
0.55

@<SCITEGIC>MOL_PROPERTY
Sum Probability
SciTegic.value.DoubleValue
93.42

@<SCITEGIC>MOL_PROPERTY
Delta G
SciTegic.value.DoubleValue
1.917

@<SCITEGIC>MOL_PROPERTY
G
SciTegic.value.DoubleValue
-19.972

@<SCITEGIC>MOL_PROPERTY
E
SciTegic.value.DoubleValue
-35.340

@<SCITEGIC>MOL_PROPERTY
-TS
SciTegic.value.DoubleValue
15.368

@<SCITEGIC>MOL_PROPERTY
U+W
SciTegic.value.DoubleValue
-51.437

@<SCITEGIC>MOL_PROPERTY
U
SciTegic.value.DoubleValue
10.461

@<SCITEGIC>MOL_PROPERTY
W
SciTegic.value.DoubleValue
-61.898

@<SCITEGIC>MOL_PROPERTY
W(PB)
SciTegic.value.DoubleValue
-64.078

@<SCITEGIC>MOL_PROPERTY
W(SA)
SciTegic.value.DoubleValue
2.180

@<SCITEGIC>MOL_PROPERTY
Valence
SciTegic.value.DoubleValue
9.554

@<SCITEGIC>MOL_PROPERTY
Coulomb
SciTegic.value.DoubleValue
0.484

@<SCITEGIC>MOL_PROPERTY
VdW
SciTegic.value.DoubleValue
0.423

@<SCITEGIC>MOL_PROPERTY
VdW6
SciTegic.value.DoubleValue
-7.224

@<SCITEGIC>MOL_PROPERTY
VdW12
SciTegic.value.DoubleValue
7.647

@<SCITEGIC>MOL_PROPERTY
Bond
SciTegic.value.DoubleValue
0.126

@<SCITEGIC>MOL_PROPERTY
Angle
SciTegic.value.DoubleValue
2.492

@<SCITEGIC>MOL_PROPERTY
Pdih
SciTegic.value.DoubleValue
6.936

@<SCITEGIC>MOL_PROPERTY
Idih
SciTegic.value.DoubleValue
0.001

@<SCITEGIC>MOL_PROPERTY
Tether
SciTegic.value.DoubleValue
0.000

@<TRIPOS>MOLECULE
guest-s22_vm2.mol2 : vm2 ligand conformer 28
          20          19           1
SMALL
USER_CHARGES
 
@<TRIPOS>ATOM
       1    C1      20.732148   18.610832   18.783690 C.2        1 MOL1        -0.2535
       2    H1      20.693424   17.803523   18.054348 H          1 MOL1         0.0845
       3    H2      21.614733   19.248430   18.779243 H          1 MOL1         0.0845
       4    C2      19.735186   18.806140   19.650638 C.2        1 MOL1        -0.1324
       5    H3      18.859264   18.158230   19.635737 H          1 MOL1         0.0833
       6    C3      19.716926   19.910076   20.686419 C.3        1 MOL1        -0.1813
       7    H4      18.724869   20.380229   20.715152 H          1 MOL1         0.0753
       8    H5      20.423000   20.700272   20.397314 H          1 MOL1         0.0753
       9    C4      20.093917   19.401602   22.096218 C.3        1 MOL1        -0.1855
      10    H6      21.079046   18.916600   22.058380 H          1 MOL1         0.0755
      11    H7      20.196843   20.266615   22.765650 H          1 MOL1         0.0755
      12    C5      19.049437   18.421690   22.681831 C.3        1 MOL1        -0.1855
      13    H8      18.960015   17.545975   22.025612 H          1 MOL1         0.0755
      14    H9      18.061162   18.901439   22.706091 H          1 MOL1         0.0755
      15    C6      19.420681   17.937743   24.107718 C.3        1 MOL1        -0.1958
      16    H10     18.719724   17.156033   24.423225 H          1 MOL1         0.0753
      17    H11     20.420168   17.486239   24.106071 H          1 MOL1         0.0753
      18    C7      19.383996   19.036911   25.165697 C.2        1 MOL1         0.6174
      19    O1      20.439821   19.484442   25.568190 O.co2      1 MOL1        -0.6695
      20    O2      18.298887   19.408564   25.567600 O.co2      1 MOL1        -0.6695
@<TRIPOS>BOND
    1     1     2    1
    2     1     3    1
    3     1     4    2
    4     4     5    1
    5     4     6    1
    6     6     7    1
    7     6     8    1
    8     6     9    1
    9     9    10    1
   10     9    11    1
   11     9    12    1
   12    12    13    1
   13    12    14    1
   14    12    15    1
   15    15    16    1
   16    15    17    1
   17    15    18    1
   18    18    19    1
   19    18    20    2
@<TRIPOS>SUBSTRUCTURE
       1 MOL1            1 RESIDUE      1      MOL     
@<SCITEGIC>MOL_PROPERTY
VM2 Rank
SciTegic.value.IntegerValue
28

@<SCITEGIC>MOL_PROPERTY
Conf_Id
SciTegic.value.IntegerValue
524

@<SCITEGIC>MOL_PROPERTY
Probability
SciTegic.value.DoubleValue
0.54

@<SCITEGIC>MOL_PROPERTY
Sum Probability
SciTegic.value.DoubleValue
93.96

@<SCITEGIC>MOL_PROPERTY
Delta G
SciTegic.value.DoubleValue
1.923

@<SCITEGIC>MOL_PROPERTY
G
SciTegic.value.DoubleValue
-19.966

@<SCITEGIC>MOL_PROPERTY
E
SciTegic.value.DoubleValue
-35.309

@<SCITEGIC>MOL_PROPERTY
-TS
SciTegic.value.DoubleValue
15.343

@<SCITEGIC>MOL_PROPERTY
U+W
SciTegic.value.DoubleValue
-51.406

@<SCITEGIC>MOL_PROPERTY
U
SciTegic.value.DoubleValue
9.191

@<SCITEGIC>MOL_PROPERTY
W
SciTegic.value.DoubleValue
-60.597

@<SCITEGIC>MOL_PROPERTY
W(PB)
SciTegic.value.DoubleValue
-62.798

@<SCITEGIC>MOL_PROPERTY
W(SA)
SciTegic.value.DoubleValue
2.201

@<SCITEGIC>MOL_PROPERTY
Valence
SciTegic.value.DoubleValue
9.572

@<SCITEGIC>MOL_PROPERTY
Coulomb
SciTegic.value.DoubleValue
-0.885

@<SCITEGIC>MOL_PROPERTY
VdW
SciTegic.value.DoubleValue
0.504

@<SCITEGIC>MOL_PROPERTY
VdW6
SciTegic.value.DoubleValue
-7.168

@<SCITEGIC>MOL_PROPERTY
VdW12
SciTegic.value.DoubleValue
7.672

@<SCITEGIC>MOL_PROPERTY
Bond
SciTegic.value.DoubleValue
0.127

@<SCITEGIC>MOL_PROPERTY
Angle
SciTegic.value.DoubleValue
2.504

@<SCITEGIC>MOL_PROPERTY
Pdih
SciTegic.value.DoubleValue
6.941

@<SCITEGIC>MOL_PROPERTY
Idih
SciTegic.value.DoubleValue
0.001

@<SCITEGIC>MOL_PROPERTY
Tether
SciTegic.value.DoubleValue
0.000

@<TRIPOS>MOLECULE
guest-s22_vm2.mol2 : vm2 ligand conformer 29
          20          19           1
SMALL
USER_CHARGES
 
@<TRIPOS>ATOM
       1    C1      20.690656   17.697423   19.498638 C.2        1 MOL1        -0.2535
       2    H1      19.837803   17.076563   19.229075 H          1 MOL1         0.0845
       3    H2      21.683368   17.307060   19.281114 H          1 MOL1         0.0845
       4    C2      20.529696   18.890437   20.077002 C.2        1 MOL1        -0.1324
       5    H3      21.397067   19.496874   20.336128 H          1 MOL1         0.0833
       6    C3      19.182654   19.499227   20.403549 C.3        1 MOL1        -0.1813
       7    H4      18.399647   19.005054   19.812607 H          1 MOL1         0.0753
       8    H5      19.168786   20.556939   20.108508 H          1 MOL1         0.0753
       9    C4      18.827078   19.370885   21.901974 C.3        1 MOL1        -0.1855
      10    H6      17.792727   19.709554   22.050863 H          1 MOL1         0.0755
      11    H7      18.854116   18.311377   22.192333 H          1 MOL1         0.0755
      12    C5      19.766795   20.192936   22.815700 C.3        1 MOL1        -0.1855
      13    H8      19.769236   21.240187   22.484686 H          1 MOL1         0.0755
      14    H9      20.798551   19.827988   22.720264 H          1 MOL1         0.0755
      15    C6      19.344651   20.137513   24.306865 C.3        1 MOL1        -0.1958
      16    H10     19.968628   20.824989   24.889990 H          1 MOL1         0.0753
      17    H11     18.307729   20.476098   24.420508 H          1 MOL1         0.0753
      18    C7      19.476816   18.754065   24.937295 C.2        1 MOL1         0.6174
      19    O1      20.586091   18.374942   25.258044 O.co2      1 MOL1        -0.6695
      20    O2      18.466563   18.100572   25.108934 O.co2      1 MOL1        -0.6695
@<TRIPOS>BOND
    1     1     2    1
    2     1     3    1
    3     1     4    2
    4     4     5    1
    5     4     6    1
    6     6     7    1
    7     6     8    1
    8     6     9    1
    9     9    10    1
   10     9    11    1
   11     9    12    1
   12    12    13    1
   13    12    14    1
   14    12    15    1
   15    15    16    1
   16    15    17    1
   17    15    18    1
   18    18    19    1
   19    18    20    2
@<TRIPOS>SUBSTRUCTURE
       1 MOL1            1 RESIDUE      1      MOL     
@<SCITEGIC>MOL_PROPERTY
VM2 Rank
SciTegic.value.IntegerValue
29

@<SCITEGIC>MOL_PROPERTY
Conf_Id
SciTegic.value.IntegerValue
334

@<SCITEGIC>MOL_PROPERTY
Probability
SciTegic.value.DoubleValue
0.52

@<SCITEGIC>MOL_PROPERTY
Sum Probability
SciTegic.value.DoubleValue
94.48

@<SCITEGIC>MOL_PROPERTY
Delta G
SciTegic.value.DoubleValue
1.947

@<SCITEGIC>MOL_PROPERTY
G
SciTegic.value.DoubleValue
-19.942

@<SCITEGIC>MOL_PROPERTY
E
SciTegic.value.DoubleValue
-35.310

@<SCITEGIC>MOL_PROPERTY
-TS
SciTegic.value.DoubleValue
15.368

@<SCITEGIC>MOL_PROPERTY
U+W
SciTegic.value.DoubleValue
-51.407

@<SCITEGIC>MOL_PROPERTY
U
SciTegic.value.DoubleValue
10.461

@<SCITEGIC>MOL_PROPERTY
W
SciTegic.value.DoubleValue
-61.867

@<SCITEGIC>MOL_PROPERTY
W(PB)
SciTegic.value.DoubleValue
-64.045

@<SCITEGIC>MOL_PROPERTY
W(SA)
SciTegic.value.DoubleValue
2.178

@<SCITEGIC>MOL_PROPERTY
Valence
SciTegic.value.DoubleValue
9.554

@<SCITEGIC>MOL_PROPERTY
Coulomb
SciTegic.value.DoubleValue
0.483

@<SCITEGIC>MOL_PROPERTY
VdW
SciTegic.value.DoubleValue
0.423

@<SCITEGIC>MOL_PROPERTY
VdW6
SciTegic.value.DoubleValue
-7.224

@<SCITEGIC>MOL_PROPERTY
VdW12
SciTegic.value.DoubleValue
7.647

@<SCITEGIC>MOL_PROPERTY
Bond
SciTegic.value.DoubleValue
0.126

@<SCITEGIC>MOL_PROPERTY
Angle
SciTegic.value.DoubleValue
2.492

@<SCITEGIC>MOL_PROPERTY
Pdih
SciTegic.value.DoubleValue
6.936

@<SCITEGIC>MOL_PROPERTY
Idih
SciTegic.value.DoubleValue
0.001

@<SCITEGIC>MOL_PROPERTY
Tether
SciTegic.value.DoubleValue
0.000

@<TRIPOS>MOLECULE
guest-s22_vm2.mol2 : vm2 ligand conformer 30
          20          19           1
SMALL
USER_CHARGES
 
@<TRIPOS>ATOM
       1    C1      21.224437   19.659324   19.931771 C.2        1 MOL1        -0.2535
       2    H1      20.695283   20.595569   20.094946 H          1 MOL1         0.0845
       3    H2      22.268812   19.728237   19.632655 H          1 MOL1         0.0845
       4    C2      20.631912   18.469683   20.081915 C.2        1 MOL1        -0.1324
       5    H3      21.208843   17.562777   19.902998 H          1 MOL1         0.0833
       6    C3      19.190933   18.222986   20.498214 C.3        1 MOL1        -0.1813
       7    H4      19.147297   17.307469   21.101187 H          1 MOL1         0.0753
       8    H5      18.601203   17.995629   19.600378 H          1 MOL1         0.0753
       9    C4      18.504147   19.373703   21.279552 C.3        1 MOL1        -0.1855
      10    H6      18.491729   20.279230   20.658779 H          1 MOL1         0.0755
      11    H7      17.449845   19.110009   21.439370 H          1 MOL1         0.0755
      12    C5      19.147672   19.699660   22.651532 C.3        1 MOL1        -0.1855
      13    H8      18.640619   20.577121   23.075959 H          1 MOL1         0.0755
      14    H9      20.199131   19.986933   22.519223 H          1 MOL1         0.0755
      15    C6      19.059084   18.533864   23.670346 C.3        1 MOL1        -0.1958
      16    H10     18.019857   18.200745   23.776121 H          1 MOL1         0.0753
      17    H11     19.644093   17.674637   23.323446 H          1 MOL1         0.0753
      18    C7      19.574201   18.918510   25.052715 C.2        1 MOL1         0.6174
      19    O1      20.746923   18.723190   25.304359 O.co2      1 MOL1        -0.6695
      20    O2      18.791692   19.417081   25.837596 O.co2      1 MOL1        -0.6695
@<TRIPOS>BOND
    1     1     2    1
    2     1     3    1
    3     1     4    2
    4     4     5    1
    5     4     6    1
    6     6     7    1
    7     6     8    1
    8     6     9    1
    9     9    10    1
   10     9    11    1
   11     9    12    1
   12    12    13    1
   13    12    14    1
   14    12    15    1
   15    15    16    1
   16    15    17    1
   17    15    18    1
   18    18    19    1
   19    18    20    2
@<TRIPOS>SUBSTRUCTURE
       1 MOL1            1 RESIDUE      1      MOL     
@<SCITEGIC>MOL_PROPERTY
VM2 Rank
SciTegic.value.IntegerValue
30

@<SCITEGIC>MOL_PROPERTY
Conf_Id
SciTegic.value.IntegerValue
491

@<SCITEGIC>MOL_PROPERTY
Probability
SciTegic.value.DoubleValue
0.44

@<SCITEGIC>MOL_PROPERTY
Sum Probability
SciTegic.value.DoubleValue
94.92

@<SCITEGIC>MOL_PROPERTY
Delta G
SciTegic.value.DoubleValue
2.047

@<SCITEGIC>MOL_PROPERTY
G
SciTegic.value.DoubleValue
-19.842

@<SCITEGIC>MOL_PROPERTY
E
SciTegic.value.DoubleValue
-35.286

@<SCITEGIC>MOL_PROPERTY
-TS
SciTegic.value.DoubleValue
15.444

@<SCITEGIC>MOL_PROPERTY
U+W
SciTegic.value.DoubleValue
-51.382

@<SCITEGIC>MOL_PROPERTY
U
SciTegic.value.DoubleValue
10.000

@<SCITEGIC>MOL_PROPERTY
W
SciTegic.value.DoubleValue
-61.383

@<SCITEGIC>MOL_PROPERTY
W(PB)
SciTegic.value.DoubleValue
-63.544

@<SCITEGIC>MOL_PROPERTY
W(SA)
SciTegic.value.DoubleValue
2.161

@<SCITEGIC>MOL_PROPERTY
Valence
SciTegic.value.DoubleValue
9.399

@<SCITEGIC>MOL_PROPERTY
Coulomb
SciTegic.value.DoubleValue
-0.503

@<SCITEGIC>MOL_PROPERTY
VdW
SciTegic.value.DoubleValue
1.104

@<SCITEGIC>MOL_PROPERTY
VdW6
SciTegic.value.DoubleValue
-7.975

@<SCITEGIC>MOL_PROPERTY
VdW12
SciTegic.value.DoubleValue
9.080

@<SCITEGIC>MOL_PROPERTY
Bond
SciTegic.value.DoubleValue
0.216

@<SCITEGIC>MOL_PROPERTY
Angle
SciTegic.value.DoubleValue
3.417

@<SCITEGIC>MOL_PROPERTY
Pdih
SciTegic.value.DoubleValue
5.765

@<SCITEGIC>MOL_PROPERTY
Idih
SciTegic.value.DoubleValue
0.001

@<SCITEGIC>MOL_PROPERTY
Tether
SciTegic.value.DoubleValue
0.000

@<TRIPOS>MOLECULE
guest-s22_vm2.mol2 : vm2 ligand conformer 31
          20          19           1
SMALL
USER_CHARGES
 
@<TRIPOS>ATOM
       1    C1      20.809826   18.830575   18.790338 C.2        1 MOL1        -0.2535
       2    H1      21.097429   17.781779   18.737227 H          1 MOL1         0.0845
       3    H2      21.299292   19.519821   18.104370 H          1 MOL1         0.0845
       4    C2      19.895045   19.259392   19.663815 C.2        1 MOL1        -0.1324
       5    H3      19.619378   20.313002   19.697959 H          1 MOL1         0.0833
       6    C3      19.169496   18.359563   20.641431 C.3        1 MOL1        -0.1813
       7    H4      19.228822   17.317524   20.299135 H          1 MOL1         0.0753
       8    H5      18.101657   18.615027   20.663937 H          1 MOL1         0.0753
       9    C4      19.756324   18.445496   22.068475 C.3        1 MOL1        -0.1855
      10    H6      19.281568   17.674324   22.690474 H          1 MOL1         0.0755
      11    H7      20.828213   18.206229   22.037766 H          1 MOL1         0.0755
      12    C5      19.547356   19.832022   22.722684 C.3        1 MOL1        -0.1855
      13    H8      18.476556   20.078025   22.740245 H          1 MOL1         0.0755
      14    H9      20.039033   20.602357   22.114134 H          1 MOL1         0.0755
      15    C6      20.114179   19.901718   24.164571 C.3        1 MOL1        -0.1958
      16    H10     21.175549   19.625468   24.167940 H          1 MOL1         0.0753
      17    H11     20.053305   20.932654   24.532567 H          1 MOL1         0.0753
      18    C7      19.376783   19.016311   25.165139 C.2        1 MOL1         0.6174
      19    O1      19.910513   17.985336   25.524682 O.co2      1 MOL1        -0.6695
      20    O2      18.291479   19.387586   25.566865 O.co2      1 MOL1        -0.6695
@<TRIPOS>BOND
    1     1     2    1
    2     1     3    1
    3     1     4    2
    4     4     5    1
    5     4     6    1
    6     6     7    1
    7     6     8    1
    8     6     9    1
    9     9    10    1
   10     9    11    1
   11     9    12    1
   12    12    13    1
   13    12    14    1
   14    12    15    1
   15    15    16    1
   16    15    17    1
   17    15    18    1
   18    18    19    1
   19    18    20    2
@<TRIPOS>SUBSTRUCTURE
       1 MOL1            1 RESIDUE      1      MOL     
@<SCITEGIC>MOL_PROPERTY
VM2 Rank
SciTegic.value.IntegerValue
31

@<SCITEGIC>MOL_PROPERTY
Conf_Id
SciTegic.value.IntegerValue
933

@<SCITEGIC>MOL_PROPERTY
Probability
SciTegic.value.DoubleValue
0.43

@<SCITEGIC>MOL_PROPERTY
Sum Probability
SciTegic.value.DoubleValue
95.35

@<SCITEGIC>MOL_PROPERTY
Delta G
SciTegic.value.DoubleValue
2.061

@<SCITEGIC>MOL_PROPERTY
G
SciTegic.value.DoubleValue
-19.828

@<SCITEGIC>MOL_PROPERTY
E
SciTegic.value.DoubleValue
-35.172

@<SCITEGIC>MOL_PROPERTY
-TS
SciTegic.value.DoubleValue
15.344

@<SCITEGIC>MOL_PROPERTY
U+W
SciTegic.value.DoubleValue
-51.269

@<SCITEGIC>MOL_PROPERTY
U
SciTegic.value.DoubleValue
9.192

@<SCITEGIC>MOL_PROPERTY
W
SciTegic.value.DoubleValue
-60.460

@<SCITEGIC>MOL_PROPERTY
W(PB)
SciTegic.value.DoubleValue
-62.648

@<SCITEGIC>MOL_PROPERTY
W(SA)
SciTegic.value.DoubleValue
2.188

@<SCITEGIC>MOL_PROPERTY
Valence
SciTegic.value.DoubleValue
9.572

@<SCITEGIC>MOL_PROPERTY
Coulomb
SciTegic.value.DoubleValue
-0.884

@<SCITEGIC>MOL_PROPERTY
VdW
SciTegic.value.DoubleValue
0.504

@<SCITEGIC>MOL_PROPERTY
VdW6
SciTegic.value.DoubleValue
-7.168

@<SCITEGIC>MOL_PROPERTY
VdW12
SciTegic.value.DoubleValue
7.672

@<SCITEGIC>MOL_PROPERTY
Bond
SciTegic.value.DoubleValue
0.127

@<SCITEGIC>MOL_PROPERTY
Angle
SciTegic.value.DoubleValue
2.504

@<SCITEGIC>MOL_PROPERTY
Pdih
SciTegic.value.DoubleValue
6.941

@<SCITEGIC>MOL_PROPERTY
Idih
SciTegic.value.DoubleValue
0.001

@<SCITEGIC>MOL_PROPERTY
Tether
SciTegic.value.DoubleValue
0.000

@<TRIPOS>MOLECULE
guest-s22_vm2.mol2 : vm2 ligand conformer 32
          20          19           1
SMALL
USER_CHARGES
 
@<TRIPOS>ATOM
       1    C1      18.672571   18.891775   19.602587 C.2        1 MOL1        -0.2535
       2    H1      17.862644   18.403008   19.064014 H          1 MOL1         0.0845
       3    H2      18.552439   19.951003   19.818896 H          1 MOL1         0.0845
       4    C2      19.761916   18.207994   19.969535 C.2        1 MOL1        -0.1324
       5    H3      19.831274   17.148483   19.724656 H          1 MOL1         0.0833
       6    C3      20.961053   18.755291   20.726587 C.3        1 MOL1        -0.1813
       7    H4      21.769550   18.948389   20.009211 H          1 MOL1         0.0753
       8    H5      21.353029   17.970802   21.385814 H          1 MOL1         0.0753
       9    C4      20.707632   20.036381   21.563787 C.3        1 MOL1        -0.1855
      10    H6      21.663970   20.377457   21.982970 H          1 MOL1         0.0755
      11    H7      20.370294   20.844154   20.901064 H          1 MOL1         0.0755
      12    C5      19.691776   19.863273   22.721706 C.3        1 MOL1        -0.1855
      13    H8      18.718569   19.541333   22.328231 H          1 MOL1         0.0755
      14    H9      19.524866   20.843142   23.189871 H          1 MOL1         0.0755
      15    C6      20.159368   18.864973   23.812426 C.3        1 MOL1        -0.1958
      16    H10     20.235612   17.852595   23.399970 H          1 MOL1         0.0753
      17    H11     21.153733   19.143876   24.180670 H          1 MOL1         0.0753
      18    C7      19.212613   18.809811   25.006100 C.2        1 MOL1         0.6174
      19    O1      19.389364   19.597396   25.914616 O.co2      1 MOL1        -0.6695
      20    O2      18.314708   17.991105   24.990657 O.co2      1 MOL1        -0.6695
@<TRIPOS>BOND
    1     1     2    1
    2     1     3    1
    3     1     4    2
    4     4     5    1
    5     4     6    1
    6     6     7    1
    7     6     8    1
    8     6     9    1
    9     9    10    1
   10     9    11    1
   11     9    12    1
   12    12    13    1
   13    12    14    1
   14    12    15    1
   15    15    16    1
   16    15    17    1
   17    15    18    1
   18    18    19    1
   19    18    20    2
@<TRIPOS>SUBSTRUCTURE
       1 MOL1            1 RESIDUE      1      MOL     
@<SCITEGIC>MOL_PROPERTY
VM2 Rank
SciTegic.value.IntegerValue
32

@<SCITEGIC>MOL_PROPERTY
Conf_Id
SciTegic.value.IntegerValue
178

@<SCITEGIC>MOL_PROPERTY
Probability
SciTegic.value.DoubleValue
0.43

@<SCITEGIC>MOL_PROPERTY
Sum Probability
SciTegic.value.DoubleValue
95.78

@<SCITEGIC>MOL_PROPERTY
Delta G
SciTegic.value.DoubleValue
2.063

@<SCITEGIC>MOL_PROPERTY
G
SciTegic.value.DoubleValue
-19.827

@<SCITEGIC>MOL_PROPERTY
E
SciTegic.value.DoubleValue
-35.270

@<SCITEGIC>MOL_PROPERTY
-TS
SciTegic.value.DoubleValue
15.443

@<SCITEGIC>MOL_PROPERTY
U+W
SciTegic.value.DoubleValue
-51.366

@<SCITEGIC>MOL_PROPERTY
U
SciTegic.value.DoubleValue
10.000

@<SCITEGIC>MOL_PROPERTY
W
SciTegic.value.DoubleValue
-61.367

@<SCITEGIC>MOL_PROPERTY
W(PB)
SciTegic.value.DoubleValue
-63.511

@<SCITEGIC>MOL_PROPERTY
W(SA)
SciTegic.value.DoubleValue
2.144

@<SCITEGIC>MOL_PROPERTY
Valence
SciTegic.value.DoubleValue
9.398

@<SCITEGIC>MOL_PROPERTY
Coulomb
SciTegic.value.DoubleValue
-0.503

@<SCITEGIC>MOL_PROPERTY
VdW
SciTegic.value.DoubleValue
1.105

@<SCITEGIC>MOL_PROPERTY
VdW6
SciTegic.value.DoubleValue
-7.975

@<SCITEGIC>MOL_PROPERTY
VdW12
SciTegic.value.DoubleValue
9.080

@<SCITEGIC>MOL_PROPERTY
Bond
SciTegic.value.DoubleValue
0.216

@<SCITEGIC>MOL_PROPERTY
Angle
SciTegic.value.DoubleValue
3.417

@<SCITEGIC>MOL_PROPERTY
Pdih
SciTegic.value.DoubleValue
5.765

@<SCITEGIC>MOL_PROPERTY
Idih
SciTegic.value.DoubleValue
0.001

@<SCITEGIC>MOL_PROPERTY
Tether
SciTegic.value.DoubleValue
0.000

@<TRIPOS>MOLECULE
guest-s22_vm2.mol2 : vm2 ligand conformer 33
          20          19           1
SMALL
USER_CHARGES
 
@<TRIPOS>ATOM
       1    C1      19.679769   18.146888   18.985315 C.2        1 MOL1        -0.2535
       2    H1      20.183661   17.475655   18.292030 H          1 MOL1         0.0845
       3    H2      18.600072   18.047285   19.084097 H          1 MOL1         0.0845
       4    C2      20.363575   19.053662   19.688304 C.2        1 MOL1        -0.1324
       5    H3      21.444385   19.135569   19.576357 H          1 MOL1         0.0833
       6    C3      19.733649   20.019058   20.669761 C.3        1 MOL1        -0.1813
       7    H4      18.639437   20.009879   20.573441 H          1 MOL1         0.0753
       8    H5      20.057284   21.039779   20.426428 H          1 MOL1         0.0753
       9    C4      20.125034   19.707818   22.131953 C.3        1 MOL1        -0.1855
      10    H6      21.219386   19.712952   22.228319 H          1 MOL1         0.0755
      11    H7      19.750500   20.514864   22.776476 H          1 MOL1         0.0755
      12    C5      19.561878   18.353941   22.625380 C.3        1 MOL1        -0.1855
      13    H8      19.940881   17.545443   21.986040 H          1 MOL1         0.0755
      14    H9      18.467661   18.347811   22.525370 H          1 MOL1         0.0755
      15    C6      19.945889   18.048680   24.096562 C.3        1 MOL1        -0.1958
      16    H10     19.628984   17.031240   24.354104 H          1 MOL1         0.0753
      17    H11     21.035294   18.082429   24.218360 H          1 MOL1         0.0753
      18    C7      19.312235   18.994788   25.112477 C.2        1 MOL1         0.6174
      19    O1      20.010769   19.854284   25.612879 O.co2      1 MOL1        -0.6695
      20    O2      18.138202   18.838882   25.385368 O.co2      1 MOL1        -0.6695
@<TRIPOS>BOND
    1     1     2    1
    2     1     3    1
    3     1     4    2
    4     4     5    1
    5     4     6    1
    6     6     7    1
    7     6     8    1
    8     6     9    1
    9     9    10    1
   10     9    11    1
   11     9    12    1
   12    12    13    1
   13    12    14    1
   14    12    15    1
   15    15    16    1
   16    15    17    1
   17    15    18    1
   18    18    19    1
   19    18    20    2
@<TRIPOS>SUBSTRUCTURE
       1 MOL1            1 RESIDUE      1      MOL     
@<SCITEGIC>MOL_PROPERTY
VM2 Rank
SciTegic.value.IntegerValue
33

@<SCITEGIC>MOL_PROPERTY
Conf_Id
SciTegic.value.IntegerValue
179

@<SCITEGIC>MOL_PROPERTY
Probability
SciTegic.value.DoubleValue
0.41

@<SCITEGIC>MOL_PROPERTY
Sum Probability
SciTegic.value.DoubleValue
96.19

@<SCITEGIC>MOL_PROPERTY
Delta G
SciTegic.value.DoubleValue
2.085

@<SCITEGIC>MOL_PROPERTY
G
SciTegic.value.DoubleValue
-19.804

@<SCITEGIC>MOL_PROPERTY
E
SciTegic.value.DoubleValue
-35.222

@<SCITEGIC>MOL_PROPERTY
-TS
SciTegic.value.DoubleValue
15.418

@<SCITEGIC>MOL_PROPERTY
U+W
SciTegic.value.DoubleValue
-51.318

@<SCITEGIC>MOL_PROPERTY
U
SciTegic.value.DoubleValue
9.294

@<SCITEGIC>MOL_PROPERTY
W
SciTegic.value.DoubleValue
-60.613

@<SCITEGIC>MOL_PROPERTY
W(PB)
SciTegic.value.DoubleValue
-62.807

@<SCITEGIC>MOL_PROPERTY
W(SA)
SciTegic.value.DoubleValue
2.194

@<SCITEGIC>MOL_PROPERTY
Valence
SciTegic.value.DoubleValue
9.495

@<SCITEGIC>MOL_PROPERTY
Coulomb
SciTegic.value.DoubleValue
-0.611

@<SCITEGIC>MOL_PROPERTY
VdW
SciTegic.value.DoubleValue
0.410

@<SCITEGIC>MOL_PROPERTY
VdW6
SciTegic.value.DoubleValue
-7.332

@<SCITEGIC>MOL_PROPERTY
VdW12
SciTegic.value.DoubleValue
7.741

@<SCITEGIC>MOL_PROPERTY
Bond
SciTegic.value.DoubleValue
0.126

@<SCITEGIC>MOL_PROPERTY
Angle
SciTegic.value.DoubleValue
2.497

@<SCITEGIC>MOL_PROPERTY
Pdih
SciTegic.value.DoubleValue
6.872

@<SCITEGIC>MOL_PROPERTY
Idih
SciTegic.value.DoubleValue
0.000

@<SCITEGIC>MOL_PROPERTY
Tether
SciTegic.value.DoubleValue
0.000

@<TRIPOS>MOLECULE
guest-s22_vm2.mol2 : vm2 ligand conformer 34
          20          19           1
SMALL
USER_CHARGES
 
@<TRIPOS>ATOM
       1    C1      20.960992   18.532958   19.150493 C.2        1 MOL1        -0.2535
       2    H1      21.081623   17.746106   18.407920 H          1 MOL1         0.0845
       3    H2      21.862407   19.030322   19.504756 H          1 MOL1         0.0845
       4    C2      19.752675   18.869566   19.609498 C.2        1 MOL1        -0.1324
       5    H3      18.863073   18.357588   19.243604 H          1 MOL1         0.0833
       6    C3      19.506453   19.950579   20.640438 C.3        1 MOL1        -0.1813
       7    H4      18.746763   20.644840   20.257433 H          1 MOL1         0.0753
       8    H5      20.415782   20.545168   20.802442 H          1 MOL1         0.0753
       9    C4      19.019922   19.374760   21.989430 C.3        1 MOL1        -0.1855
      10    H6      18.732341   20.208039   22.645139 H          1 MOL1         0.0755
      11    H7      18.112758   18.776584   21.827689 H          1 MOL1         0.0755
      12    C5      20.095816   18.514961   22.694270 C.3        1 MOL1        -0.1855
      13    H8      21.004200   19.112544   22.852653 H          1 MOL1         0.0755
      14    H9      20.379501   17.677758   22.042594 H          1 MOL1         0.0755
      15    C6      19.609809   17.947347   24.053183 C.3        1 MOL1        -0.1958
      16    H10     18.685263   17.373827   23.915095 H          1 MOL1         0.0753
      17    H11     20.359132   17.251402   24.448300 H          1 MOL1         0.0753
      18    C7      19.368499   19.011740   25.119748 C.2        1 MOL1         0.6174
      19    O1      20.335769   19.501432   25.669036 O.co2      1 MOL1        -0.6695
      20    O2      18.221065   19.314656   25.381904 O.co2      1 MOL1        -0.6695
@<TRIPOS>BOND
    1     1     2    1
    2     1     3    1
    3     1     4    2
    4     4     5    1
    5     4     6    1
    6     6     7    1
    7     6     8    1
    8     6     9    1
    9     9    10    1
   10     9    11    1
   11     9    12    1
   12    12    13    1
   13    12    14    1
   14    12    15    1
   15    15    16    1
   16    15    17    1
   17    15    18    1
   18    18    19    1
   19    18    20    2
@<TRIPOS>SUBSTRUCTURE
       1 MOL1            1 RESIDUE      1      MOL     
@<SCITEGIC>MOL_PROPERTY
VM2 Rank
SciTegic.value.IntegerValue
34

@<SCITEGIC>MOL_PROPERTY
Conf_Id
SciTegic.value.IntegerValue
521

@<SCITEGIC>MOL_PROPERTY
Probability
SciTegic.value.DoubleValue
0.39

@<SCITEGIC>MOL_PROPERTY
Sum Probability
SciTegic.value.DoubleValue
96.58

@<SCITEGIC>MOL_PROPERTY
Delta G
SciTegic.value.DoubleValue
2.113

@<SCITEGIC>MOL_PROPERTY
G
SciTegic.value.DoubleValue
-19.776

@<SCITEGIC>MOL_PROPERTY
E
SciTegic.value.DoubleValue
-35.195

@<SCITEGIC>MOL_PROPERTY
-TS
SciTegic.value.DoubleValue
15.419

@<SCITEGIC>MOL_PROPERTY
U+W
SciTegic.value.DoubleValue
-51.291

@<SCITEGIC>MOL_PROPERTY
U
SciTegic.value.DoubleValue
9.294

@<SCITEGIC>MOL_PROPERTY
W
SciTegic.value.DoubleValue
-60.585

@<SCITEGIC>MOL_PROPERTY
W(PB)
SciTegic.value.DoubleValue
-62.765

@<SCITEGIC>MOL_PROPERTY
W(SA)
SciTegic.value.DoubleValue
2.180

@<SCITEGIC>MOL_PROPERTY
Valence
SciTegic.value.DoubleValue
9.495

@<SCITEGIC>MOL_PROPERTY
Coulomb
SciTegic.value.DoubleValue
-0.611

@<SCITEGIC>MOL_PROPERTY
VdW
SciTegic.value.DoubleValue
0.409

@<SCITEGIC>MOL_PROPERTY
VdW6
SciTegic.value.DoubleValue
-7.332

@<SCITEGIC>MOL_PROPERTY
VdW12
SciTegic.value.DoubleValue
7.741

@<SCITEGIC>MOL_PROPERTY
Bond
SciTegic.value.DoubleValue
0.126

@<SCITEGIC>MOL_PROPERTY
Angle
SciTegic.value.DoubleValue
2.497

@<SCITEGIC>MOL_PROPERTY
Pdih
SciTegic.value.DoubleValue
6.872

@<SCITEGIC>MOL_PROPERTY
Idih
SciTegic.value.DoubleValue
0.000

@<SCITEGIC>MOL_PROPERTY
Tether
SciTegic.value.DoubleValue
0.000

@<TRIPOS>MOLECULE
guest-s22_vm2.mol2 : vm2 ligand conformer 35
          20          19           1
SMALL
USER_CHARGES
 
@<TRIPOS>ATOM
       1    C1      19.668150   17.824582   19.358030 C.2        1 MOL1        -0.2535
       2    H1      18.745108   18.282922   19.006873 H          1 MOL1         0.0845
       3    H2      19.861455   16.795403   19.060508 H          1 MOL1         0.0845
       4    C2      20.530500   18.494213   20.127426 C.2        1 MOL1        -0.1324
       5    H3      21.447502   18.016027   20.470716 H          1 MOL1         0.0833
       6    C3      20.329957   19.924194   20.582223 C.3        1 MOL1        -0.1813
       7    H4      19.495046   20.388898   20.040391 H          1 MOL1         0.0753
       8    H5      21.225101   20.509106   20.332414 H          1 MOL1         0.0753
       9    C4      20.077909   20.024661   22.103517 C.3        1 MOL1        -0.1855
      10    H6      20.917391   19.565391   22.643591 H          1 MOL1         0.0755
      11    H7      20.062708   21.084488   22.392091 H          1 MOL1         0.0755
      12    C5      18.747867   19.361566   22.533122 C.3        1 MOL1        -0.1855
      13    H8      18.766004   18.290609   22.288015 H          1 MOL1         0.0755
      14    H9      17.921936   19.802215   21.958755 H          1 MOL1         0.0755
      15    C6      18.457859   19.533639   24.046761 C.3        1 MOL1        -0.1958
      16    H10     18.459521   20.597062   24.314821 H          1 MOL1         0.0753
      17    H11     17.455900   19.150680   24.273500 H          1 MOL1         0.0753
      18    C7      19.443117   18.801591   24.953504 C.2        1 MOL1         0.6174
      19    O1      20.304021   19.452352   25.512537 O.co2      1 MOL1        -0.6695
      20    O2      19.311621   17.601202   25.090878 O.co2      1 MOL1        -0.6695
@<TRIPOS>BOND
    1     1     2    1
    2     1     3    1
    3     1     4    2
    4     4     5    1
    5     4     6    1
    6     6     7    1
    7     6     8    1
    8     6     9    1
    9     9    10    1
   10     9    11    1
   11     9    12    1
   12    12    13    1
   13    12    14    1
   14    12    15    1
   15    15    16    1
   16    15    17    1
   17    15    18    1
   18    18    19    1
   19    18    20    2
@<TRIPOS>SUBSTRUCTURE
       1 MOL1            1 RESIDUE      1      MOL     
@<SCITEGIC>MOL_PROPERTY
VM2 Rank
SciTegic.value.IntegerValue
35

@<SCITEGIC>MOL_PROPERTY
Conf_Id
SciTegic.value.IntegerValue
559

@<SCITEGIC>MOL_PROPERTY
Probability
SciTegic.value.DoubleValue
0.37

@<SCITEGIC>MOL_PROPERTY
Sum Probability
SciTegic.value.DoubleValue
96.95

@<SCITEGIC>MOL_PROPERTY
Delta G
SciTegic.value.DoubleValue
2.158

@<SCITEGIC>MOL_PROPERTY
G
SciTegic.value.DoubleValue
-19.731

@<SCITEGIC>MOL_PROPERTY
E
SciTegic.value.DoubleValue
-35.156

@<SCITEGIC>MOL_PROPERTY
-TS
SciTegic.value.DoubleValue
15.425

@<SCITEGIC>MOL_PROPERTY
U+W
SciTegic.value.DoubleValue
-51.253

@<SCITEGIC>MOL_PROPERTY
U
SciTegic.value.DoubleValue
10.179

@<SCITEGIC>MOL_PROPERTY
W
SciTegic.value.DoubleValue
-61.431

@<SCITEGIC>MOL_PROPERTY
W(PB)
SciTegic.value.DoubleValue
-63.627

@<SCITEGIC>MOL_PROPERTY
W(SA)
SciTegic.value.DoubleValue
2.195

@<SCITEGIC>MOL_PROPERTY
Valence
SciTegic.value.DoubleValue
9.483

@<SCITEGIC>MOL_PROPERTY
Coulomb
SciTegic.value.DoubleValue
0.361

@<SCITEGIC>MOL_PROPERTY
VdW
SciTegic.value.DoubleValue
0.335

@<SCITEGIC>MOL_PROPERTY
VdW6
SciTegic.value.DoubleValue
-7.385

@<SCITEGIC>MOL_PROPERTY
VdW12
SciTegic.value.DoubleValue
7.720

@<SCITEGIC>MOL_PROPERTY
Bond
SciTegic.value.DoubleValue
0.125

@<SCITEGIC>MOL_PROPERTY
Angle
SciTegic.value.DoubleValue
2.487

@<SCITEGIC>MOL_PROPERTY
Pdih
SciTegic.value.DoubleValue
6.870

@<SCITEGIC>MOL_PROPERTY
Idih
SciTegic.value.DoubleValue
0.001

@<SCITEGIC>MOL_PROPERTY
Tether
SciTegic.value.DoubleValue
0.000

@<TRIPOS>MOLECULE
guest-s22_vm2.mol2 : vm2 ligand conformer 36
          20          19           1
SMALL
USER_CHARGES
 
@<TRIPOS>ATOM
       1    C1      21.059190   18.243802   19.537489 C.2        1 MOL1        -0.2535
       2    H1      21.635300   19.154033   19.379463 H          1 MOL1         0.0845
       3    H2      21.532903   17.299127   19.276182 H          1 MOL1         0.0845
       4    C2      19.820524   18.280195   20.035893 C.2        1 MOL1        -0.1324
       5    H3      19.261915   17.357217   20.189095 H          1 MOL1         0.0833
       6    C3      19.097852   19.552825   20.423276 C.3        1 MOL1        -0.1813
       7    H4      18.116298   19.572083   19.931350 H          1 MOL1         0.0753
       8    H5      19.644003   20.433764   20.059580 H          1 MOL1         0.0753
       9    C4      18.891865   19.667231   21.950508 C.3        1 MOL1        -0.1855
      10    H6      18.260012   20.541202   22.159497 H          1 MOL1         0.0755
      11    H7      18.339497   18.788461   22.311051 H          1 MOL1         0.0755
      12    C5      20.224570   19.806732   22.723620 C.3        1 MOL1        -0.1855
      13    H8      20.784114   20.665004   22.328002 H          1 MOL1         0.0755
      14    H9      20.850011   18.918835   22.556838 H          1 MOL1         0.0755
      15    C6      20.012001   20.002112   24.247253 C.3        1 MOL1        -0.1958
      16    H10     20.975087   20.211472   24.727485 H          1 MOL1         0.0753
      17    H11     19.369342   20.871310   24.432219 H          1 MOL1         0.0753
      18    C7      19.405277   18.790168   24.948602 C.2        1 MOL1         0.6174
      19    O1      20.132694   17.848703   25.196803 O.co2      1 MOL1        -0.6695
      20    O2      18.227027   18.826232   25.244557 O.co2      1 MOL1        -0.6695
@<TRIPOS>BOND
    1     1     2    1
    2     1     3    1
    3     1     4    2
    4     4     5    1
    5     4     6    1
    6     6     7    1
    7     6     8    1
    8     6     9    1
    9     9    10    1
   10     9    11    1
   11     9    12    1
   12    12    13    1
   13    12    14    1
   14    12    15    1
   15    15    16    1
   16    15    17    1
   17    15    18    1
   18    18    19    1
   19    18    20    2
@<TRIPOS>SUBSTRUCTURE
       1 MOL1            1 RESIDUE      1      MOL     
@<SCITEGIC>MOL_PROPERTY
VM2 Rank
SciTegic.value.IntegerValue
36

@<SCITEGIC>MOL_PROPERTY
Conf_Id
SciTegic.value.IntegerValue
699

@<SCITEGIC>MOL_PROPERTY
Probability
SciTegic.value.DoubleValue
0.36

@<SCITEGIC>MOL_PROPERTY
Sum Probability
SciTegic.value.DoubleValue
97.31

@<SCITEGIC>MOL_PROPERTY
Delta G
SciTegic.value.DoubleValue
2.170

@<SCITEGIC>MOL_PROPERTY
G
SciTegic.value.DoubleValue
-19.719

@<SCITEGIC>MOL_PROPERTY
E
SciTegic.value.DoubleValue
-35.144

@<SCITEGIC>MOL_PROPERTY
-TS
SciTegic.value.DoubleValue
15.425

@<SCITEGIC>MOL_PROPERTY
U+W
SciTegic.value.DoubleValue
-51.241

@<SCITEGIC>MOL_PROPERTY
U
SciTegic.value.DoubleValue
10.179

@<SCITEGIC>MOL_PROPERTY
W
SciTegic.value.DoubleValue
-61.419

@<SCITEGIC>MOL_PROPERTY
W(PB)
SciTegic.value.DoubleValue
-63.642

@<SCITEGIC>MOL_PROPERTY
W(SA)
SciTegic.value.DoubleValue
2.222

@<SCITEGIC>MOL_PROPERTY
Valence
SciTegic.value.DoubleValue
9.483

@<SCITEGIC>MOL_PROPERTY
Coulomb
SciTegic.value.DoubleValue
0.360

@<SCITEGIC>MOL_PROPERTY
VdW
SciTegic.value.DoubleValue
0.335

@<SCITEGIC>MOL_PROPERTY
VdW6
SciTegic.value.DoubleValue
-7.385

@<SCITEGIC>MOL_PROPERTY
VdW12
SciTegic.value.DoubleValue
7.720

@<SCITEGIC>MOL_PROPERTY
Bond
SciTegic.value.DoubleValue
0.125

@<SCITEGIC>MOL_PROPERTY
Angle
SciTegic.value.DoubleValue
2.487

@<SCITEGIC>MOL_PROPERTY
Pdih
SciTegic.value.DoubleValue
6.870

@<SCITEGIC>MOL_PROPERTY
Idih
SciTegic.value.DoubleValue
0.001

@<SCITEGIC>MOL_PROPERTY
Tether
SciTegic.value.DoubleValue
0.000

@<TRIPOS>MOLECULE
guest-s22_vm2.mol2 : vm2 ligand conformer 37
          20          19           1
SMALL
USER_CHARGES
 
@<TRIPOS>ATOM
       1    C1      20.499297   17.663230   19.677167 C.2        1 MOL1        -0.2535
       2    H1      20.497142   16.578958   19.580378 H          1 MOL1         0.0845
       3    H2      21.361800   18.200706   19.286495 H          1 MOL1         0.0845
       4    C2      19.482560   18.307385   20.255978 C.2        1 MOL1        -0.1324
       5    H3      18.624051   17.752660   20.632849 H          1 MOL1         0.0833
       6    C3      19.413641   19.811473   20.412743 C.3        1 MOL1        -0.1813
       7    H4      18.376583   20.128894   20.585049 H          1 MOL1         0.0753
       8    H5      19.712701   20.274216   19.462564 H          1 MOL1         0.0753
       9    C4      20.329405   20.359917   21.535129 C.3        1 MOL1        -0.1855
      10    H6      21.322374   19.894260   21.471007 H          1 MOL1         0.0755
      11    H7      20.486641   21.430987   21.348531 H          1 MOL1         0.0755
      12    C5      19.763505   20.211230   22.969964 C.3        1 MOL1        -0.1855
      13    H8      18.764846   20.665666   23.026623 H          1 MOL1         0.0755
      14    H9      20.402437   20.787391   23.653553 H          1 MOL1         0.0755
      15    C6      19.697431   18.748916   23.480386 C.3        1 MOL1        -0.1958
      16    H10     18.954939   18.177080   22.914887 H          1 MOL1         0.0753
      17    H11     20.666311   18.254396   23.342383 H          1 MOL1         0.0753
      18    C7      19.322682   18.655239   24.954975 C.2        1 MOL1         0.6174
      19    O1      20.218624   18.658193   25.776047 O.co2      1 MOL1        -0.6695
      20    O2      18.143856   18.602418   25.245610 O.co2      1 MOL1        -0.6695
@<TRIPOS>BOND
    1     1     2    1
    2     1     3    1
    3     1     4    2
    4     4     5    1
    5     4     6    1
    6     6     7    1
    7     6     8    1
    8     6     9    1
    9     9    10    1
   10     9    11    1
   11     9    12    1
   12    12    13    1
   13    12    14    1
   14    12    15    1
   15    15    16    1
   16    15    17    1
   17    15    18    1
   18    18    19    1
   19    18    20    2
@<TRIPOS>SUBSTRUCTURE
       1 MOL1            1 RESIDUE      1      MOL     
@<SCITEGIC>MOL_PROPERTY
VM2 Rank
SciTegic.value.IntegerValue
37

@<SCITEGIC>MOL_PROPERTY
Conf_Id
SciTegic.value.IntegerValue
108

@<SCITEGIC>MOL_PROPERTY
Probability
SciTegic.value.DoubleValue
0.22

@<SCITEGIC>MOL_PROPERTY
Sum Probability
SciTegic.value.DoubleValue
97.53

@<SCITEGIC>MOL_PROPERTY
Delta G
SciTegic.value.DoubleValue
2.453

@<SCITEGIC>MOL_PROPERTY
G
SciTegic.value.DoubleValue
-19.436

@<SCITEGIC>MOL_PROPERTY
E
SciTegic.value.DoubleValue
-34.098

@<SCITEGIC>MOL_PROPERTY
-TS
SciTegic.value.DoubleValue
14.662

@<SCITEGIC>MOL_PROPERTY
U+W
SciTegic.value.DoubleValue
-50.195

@<SCITEGIC>MOL_PROPERTY
U
SciTegic.value.DoubleValue
10.643

@<SCITEGIC>MOL_PROPERTY
W
SciTegic.value.DoubleValue
-60.838

@<SCITEGIC>MOL_PROPERTY
W(PB)
SciTegic.value.DoubleValue
-62.995

@<SCITEGIC>MOL_PROPERTY
W(SA)
SciTegic.value.DoubleValue
2.157

@<SCITEGIC>MOL_PROPERTY
Valence
SciTegic.value.DoubleValue
11.231

@<SCITEGIC>MOL_PROPERTY
Coulomb
SciTegic.value.DoubleValue
-1.077

@<SCITEGIC>MOL_PROPERTY
VdW
SciTegic.value.DoubleValue
0.490

@<SCITEGIC>MOL_PROPERTY
VdW6
SciTegic.value.DoubleValue
-7.546

@<SCITEGIC>MOL_PROPERTY
VdW12
SciTegic.value.DoubleValue
8.035

@<SCITEGIC>MOL_PROPERTY
Bond
SciTegic.value.DoubleValue
0.159

@<SCITEGIC>MOL_PROPERTY
Angle
SciTegic.value.DoubleValue
3.005

@<SCITEGIC>MOL_PROPERTY
Pdih
SciTegic.value.DoubleValue
8.065

@<SCITEGIC>MOL_PROPERTY
Idih
SciTegic.value.DoubleValue
0.002

@<SCITEGIC>MOL_PROPERTY
Tether
SciTegic.value.DoubleValue
0.000

@<TRIPOS>MOLECULE
guest-s22_vm2.mol2 : vm2 ligand conformer 38
          20          19           1
SMALL
USER_CHARGES
 
@<TRIPOS>ATOM
       1    C1      19.445166   19.923611   19.282039 C.2        1 MOL1        -0.2535
       2    H1      19.512619   20.465739   18.340398 H          1 MOL1         0.0845
       3    H2      18.447771   19.762722   19.685541 H          1 MOL1         0.0845
       4    C2      20.548791   19.487767   19.900121 C.2        1 MOL1        -0.1324
       5    H3      21.520978   19.681716   19.447596 H          1 MOL1         0.0833
       6    C3      20.614132   18.720591   21.210322 C.3        1 MOL1        -0.1813
       7    H4      21.175829   19.322470   21.936199 H          1 MOL1         0.0753
       8    H5      21.206582   17.809306   21.054384 H          1 MOL1         0.0753
       9    C4      19.239675   18.331344   21.808617 C.3        1 MOL1        -0.1855
      10    H6      18.672179   19.240212   22.051680 H          1 MOL1         0.0755
      11    H7      18.658638   17.791503   21.048576 H          1 MOL1         0.0755
      12    C5      19.345536   17.432267   23.065405 C.3        1 MOL1        -0.1855
      13    H8      19.869945   16.503580   22.802872 H          1 MOL1         0.0755
      14    H9      18.333260   17.136487   23.373984 H          1 MOL1         0.0755
      15    C6      20.059935   18.095994   24.274435 C.3        1 MOL1        -0.1958
      16    H10     20.097197   17.385201   25.108128 H          1 MOL1         0.0753
      17    H11     21.099840   18.336324   24.025965 H          1 MOL1         0.0753
      18    C7      19.374843   19.359584   24.787166 C.2        1 MOL1         0.6174
      19    O1      19.931088   20.426330   24.615419 O.co2      1 MOL1        -0.6695
      20    O2      18.311834   19.240513   25.364475 O.co2      1 MOL1        -0.6695
@<TRIPOS>BOND
    1     1     2    1
    2     1     3    1
    3     1     4    2
    4     4     5    1
    5     4     6    1
    6     6     7    1
    7     6     8    1
    8     6     9    1
    9     9    10    1
   10     9    11    1
   11     9    12    1
   12    12    13    1
   13    12    14    1
   14    12    15    1
   15    15    16    1
   16    15    17    1
   17    15    18    1
   18    18    19    1
   19    18    20    2
@<TRIPOS>SUBSTRUCTURE
       1 MOL1            1 RESIDUE      1      MOL     
@<SCITEGIC>MOL_PROPERTY
VM2 Rank
SciTegic.value.IntegerValue
38

@<SCITEGIC>MOL_PROPERTY
Conf_Id
SciTegic.value.IntegerValue
320

@<SCITEGIC>MOL_PROPERTY
Probability
SciTegic.value.DoubleValue
0.22

@<SCITEGIC>MOL_PROPERTY
Sum Probability
SciTegic.value.DoubleValue
97.75

@<SCITEGIC>MOL_PROPERTY
Delta G
SciTegic.value.DoubleValue
2.467

@<SCITEGIC>MOL_PROPERTY
G
SciTegic.value.DoubleValue
-19.422

@<SCITEGIC>MOL_PROPERTY
E
SciTegic.value.DoubleValue
-35.131

@<SCITEGIC>MOL_PROPERTY
-TS
SciTegic.value.DoubleValue
15.709

@<SCITEGIC>MOL_PROPERTY
U+W
SciTegic.value.DoubleValue
-51.227

@<SCITEGIC>MOL_PROPERTY
U
SciTegic.value.DoubleValue
10.870

@<SCITEGIC>MOL_PROPERTY
W
SciTegic.value.DoubleValue
-62.097

@<SCITEGIC>MOL_PROPERTY
W(PB)
SciTegic.value.DoubleValue
-64.246

@<SCITEGIC>MOL_PROPERTY
W(SA)
SciTegic.value.DoubleValue
2.149

@<SCITEGIC>MOL_PROPERTY
Valence
SciTegic.value.DoubleValue
8.803

@<SCITEGIC>MOL_PROPERTY
Coulomb
SciTegic.value.DoubleValue
1.019

@<SCITEGIC>MOL_PROPERTY
VdW
SciTegic.value.DoubleValue
1.048

@<SCITEGIC>MOL_PROPERTY
VdW6
SciTegic.value.DoubleValue
-8.312

@<SCITEGIC>MOL_PROPERTY
VdW12
SciTegic.value.DoubleValue
9.360

@<SCITEGIC>MOL_PROPERTY
Bond
SciTegic.value.DoubleValue
0.212

@<SCITEGIC>MOL_PROPERTY
Angle
SciTegic.value.DoubleValue
3.379

@<SCITEGIC>MOL_PROPERTY
Pdih
SciTegic.value.DoubleValue
5.211

@<SCITEGIC>MOL_PROPERTY
Idih
SciTegic.value.DoubleValue
0.001

@<SCITEGIC>MOL_PROPERTY
Tether
SciTegic.value.DoubleValue
0.000

@<TRIPOS>MOLECULE
guest-s22_vm2.mol2 : vm2 ligand conformer 39
          20          19           1
SMALL
USER_CHARGES
 
@<TRIPOS>ATOM
       1    C1      20.114183   20.125185   19.368260 C.2        1 MOL1        -0.2535
       2    H1      20.911540   20.505257   20.003289 H          1 MOL1         0.0845
       3    H2      19.984176   20.607698   18.401089 H          1 MOL1         0.0845
       4    C2      19.317962   19.116800   19.741312 C.2        1 MOL1        -0.1324
       5    H3      18.534423   18.781456   19.062231 H          1 MOL1         0.0833
       6    C3      19.377624   18.347939   21.050796 C.3        1 MOL1        -0.1813
       7    H4      19.432480   17.274627   20.825526 H          1 MOL1         0.0753
       8    H5      18.428252   18.494409   21.581735 H          1 MOL1         0.0753
       9    C4      20.557781   18.728628   21.978645 C.3        1 MOL1        -0.1855
      10    H6      21.496931   18.646950   21.414712 H          1 MOL1         0.0755
      11    H7      20.463826   19.780217   22.282793 H          1 MOL1         0.0755
      12    C5      20.669017   17.831170   23.236126 C.3        1 MOL1        -0.1855
      13    H8      21.573920   18.113189   23.792026 H          1 MOL1         0.0755
      14    H9      20.813005   16.787833   22.924513 H          1 MOL1         0.0755
      15    C6      19.450363   17.912300   24.195792 C.3        1 MOL1        -0.1958
      16    H10     18.539368   17.564683   23.695643 H          1 MOL1         0.0753
      17    H11     19.612965   17.239265   25.045639 H          1 MOL1         0.0753
      18    C7      19.195315   19.305481   24.764037 C.2        1 MOL1         0.6174
      19    O1      19.982459   19.744034   25.579834 O.co2      1 MOL1        -0.6695
      20    O2      18.206298   19.906463   24.393199 O.co2      1 MOL1        -0.6695
@<TRIPOS>BOND
    1     1     2    1
    2     1     3    1
    3     1     4    2
    4     4     5    1
    5     4     6    1
    6     6     7    1
    7     6     8    1
    8     6     9    1
    9     9    10    1
   10     9    11    1
   11     9    12    1
   12    12    13    1
   13    12    14    1
   14    12    15    1
   15    15    16    1
   16    15    17    1
   17    15    18    1
   18    18    19    1
   19    18    20    2
@<TRIPOS>SUBSTRUCTURE
       1 MOL1            1 RESIDUE      1      MOL     
@<SCITEGIC>MOL_PROPERTY
VM2 Rank
SciTegic.value.IntegerValue
39

@<SCITEGIC>MOL_PROPERTY
Conf_Id
SciTegic.value.IntegerValue
848

@<SCITEGIC>MOL_PROPERTY
Probability
SciTegic.value.DoubleValue
0.21

@<SCITEGIC>MOL_PROPERTY
Sum Probability
SciTegic.value.DoubleValue
97.96

@<SCITEGIC>MOL_PROPERTY
Delta G
SciTegic.value.DoubleValue
2.478

@<SCITEGIC>MOL_PROPERTY
G
SciTegic.value.DoubleValue
-19.411

@<SCITEGIC>MOL_PROPERTY
E
SciTegic.value.DoubleValue
-35.121

@<SCITEGIC>MOL_PROPERTY
-TS
SciTegic.value.DoubleValue
15.710

@<SCITEGIC>MOL_PROPERTY
U+W
SciTegic.value.DoubleValue
-51.218

@<SCITEGIC>MOL_PROPERTY
U
SciTegic.value.DoubleValue
10.869

@<SCITEGIC>MOL_PROPERTY
W
SciTegic.value.DoubleValue
-62.087

@<SCITEGIC>MOL_PROPERTY
W(PB)
SciTegic.value.DoubleValue
-64.261

@<SCITEGIC>MOL_PROPERTY
W(SA)
SciTegic.value.DoubleValue
2.174

@<SCITEGIC>MOL_PROPERTY
Valence
SciTegic.value.DoubleValue
8.803

@<SCITEGIC>MOL_PROPERTY
Coulomb
SciTegic.value.DoubleValue
1.018

@<SCITEGIC>MOL_PROPERTY
VdW
SciTegic.value.DoubleValue
1.048

@<SCITEGIC>MOL_PROPERTY
VdW6
SciTegic.value.DoubleValue
-8.312

@<SCITEGIC>MOL_PROPERTY
VdW12
SciTegic.value.DoubleValue
9.360

@<SCITEGIC>MOL_PROPERTY
Bond
SciTegic.value.DoubleValue
0.212

@<SCITEGIC>MOL_PROPERTY
Angle
SciTegic.value.DoubleValue
3.379

@<SCITEGIC>MOL_PROPERTY
Pdih
SciTegic.value.DoubleValue
5.211

@<SCITEGIC>MOL_PROPERTY
Idih
SciTegic.value.DoubleValue
0.001

@<SCITEGIC>MOL_PROPERTY
Tether
SciTegic.value.DoubleValue
0.000

@<TRIPOS>MOLECULE
guest-s22_vm2.mol2 : vm2 ligand conformer 40
          20          19           1
SMALL
USER_CHARGES
 
@<TRIPOS>ATOM
       1    C1      20.403319   17.634247   19.664731 C.2        1 MOL1        -0.2535
       2    H1      19.506748   17.641216   19.047053 H          1 MOL1         0.0845
       3    H2      21.018078   16.736029   19.647530 H          1 MOL1         0.0845
       4    C2      20.736824   18.685600   20.417819 C.2        1 MOL1        -0.1324
       5    H3      21.642845   18.663047   21.022308 H          1 MOL1         0.0833
       6    C3      19.936805   19.969222   20.480158 C.3        1 MOL1        -0.1813
       7    H4      19.665102   20.259728   19.456347 H          1 MOL1         0.0753
       8    H5      20.559456   20.787186   20.866390 H          1 MOL1         0.0753
       9    C4      18.638907   19.850224   21.317096 C.3        1 MOL1        -0.1855
      10    H6      17.972495   20.672960   21.024287 H          1 MOL1         0.0755
      11    H7      18.107225   18.924874   21.056374 H          1 MOL1         0.0755
      12    C5      18.841754   19.933325   22.851061 C.3        1 MOL1        -0.1855
      13    H8      17.854026   20.019246   23.324876 H          1 MOL1         0.0755
      14    H9      19.386051   20.852813   23.106645 H          1 MOL1         0.0755
      15    C6      19.572049   18.711059   23.464247 C.3        1 MOL1        -0.1958
      16    H10     19.092472   17.779987   23.139543 H          1 MOL1         0.0753
      17    H11     20.613371   18.676794   23.128757 H          1 MOL1         0.0753
      18    C7      19.581692   18.733327   24.988398 C.2        1 MOL1         0.6174
      19    O1      20.492902   19.310307   25.548467 O.co2      1 MOL1        -0.6695
      20    O2      18.666747   18.190689   25.576022 O.co2      1 MOL1        -0.6695
@<TRIPOS>BOND
    1     1     2    1
    2     1     3    1
    3     1     4    2
    4     4     5    1
    5     4     6    1
    6     6     7    1
    7     6     8    1
    8     6     9    1
    9     9    10    1
   10     9    11    1
   11     9    12    1
   12    12    13    1
   13    12    14    1
   14    12    15    1
   15    15    16    1
   16    15    17    1
   17    15    18    1
   18    18    19    1
   19    18    20    2
@<TRIPOS>SUBSTRUCTURE
       1 MOL1            1 RESIDUE      1      MOL     
@<SCITEGIC>MOL_PROPERTY
VM2 Rank
SciTegic.value.IntegerValue
40

@<SCITEGIC>MOL_PROPERTY
Conf_Id
SciTegic.value.IntegerValue
662

@<SCITEGIC>MOL_PROPERTY
Probability
SciTegic.value.DoubleValue
0.20

@<SCITEGIC>MOL_PROPERTY
Sum Probability
SciTegic.value.DoubleValue
98.16

@<SCITEGIC>MOL_PROPERTY
Delta G
SciTegic.value.DoubleValue
2.504

@<SCITEGIC>MOL_PROPERTY
G
SciTegic.value.DoubleValue
-19.385

@<SCITEGIC>MOL_PROPERTY
E
SciTegic.value.DoubleValue
-34.047

@<SCITEGIC>MOL_PROPERTY
-TS
SciTegic.value.DoubleValue
14.662

@<SCITEGIC>MOL_PROPERTY
U+W
SciTegic.value.DoubleValue
-50.143

@<SCITEGIC>MOL_PROPERTY
U
SciTegic.value.DoubleValue
10.643

@<SCITEGIC>MOL_PROPERTY
W
SciTegic.value.DoubleValue
-60.786

@<SCITEGIC>MOL_PROPERTY
W(PB)
SciTegic.value.DoubleValue
-62.965

@<SCITEGIC>MOL_PROPERTY
W(SA)
SciTegic.value.DoubleValue
2.179

@<SCITEGIC>MOL_PROPERTY
Valence
SciTegic.value.DoubleValue
11.231

@<SCITEGIC>MOL_PROPERTY
Coulomb
SciTegic.value.DoubleValue
-1.077

@<SCITEGIC>MOL_PROPERTY
VdW
SciTegic.value.DoubleValue
0.490

@<SCITEGIC>MOL_PROPERTY
VdW6
SciTegic.value.DoubleValue
-7.545

@<SCITEGIC>MOL_PROPERTY
VdW12
SciTegic.value.DoubleValue
8.035

@<SCITEGIC>MOL_PROPERTY
Bond
SciTegic.value.DoubleValue
0.159

@<SCITEGIC>MOL_PROPERTY
Angle
SciTegic.value.DoubleValue
3.005

@<SCITEGIC>MOL_PROPERTY
Pdih
SciTegic.value.DoubleValue
8.064

@<SCITEGIC>MOL_PROPERTY
Idih
SciTegic.value.DoubleValue
0.002

@<SCITEGIC>MOL_PROPERTY
Tether
SciTegic.value.DoubleValue
0.000

@<TRIPOS>MOLECULE
guest-s22_vm2.mol2 : vm2 ligand conformer 41
          20          19           1
SMALL
USER_CHARGES
 
@<TRIPOS>ATOM
       1    C1      19.921967   18.495773   18.706963 C.2        1 MOL1        -0.2535
       2    H1      19.991322   17.723032   17.943221 H          1 MOL1         0.0845
       3    H2      20.158061   19.516379   18.410019 H          1 MOL1         0.0845
       4    C2      19.563333   18.198711   19.958702 C.2        1 MOL1        -0.1324
       5    H3      19.331846   17.170528   20.236044 H          1 MOL1         0.0833
       6    C3      19.444554   19.216539   21.071142 C.3        1 MOL1        -0.1813
       7    H4      18.485076   19.076373   21.585639 H          1 MOL1         0.0753
       8    H5      19.439405   20.233771   20.656911 H          1 MOL1         0.0753
       9    C4      20.607312   19.075332   22.078729 C.3        1 MOL1        -0.1855
      10    H6      20.567188   18.083212   22.549202 H          1 MOL1         0.0755
      11    H7      21.558566   19.118327   21.530617 H          1 MOL1         0.0755
      12    C5      20.617283   20.174025   23.170042 C.3        1 MOL1        -0.1855
      13    H8      20.713578   21.158078   22.691738 H          1 MOL1         0.0755
      14    H9      21.513508   20.045750   23.792706 H          1 MOL1         0.0755
      15    C6      19.366646   20.175806   24.091086 C.3        1 MOL1        -0.1958
      16    H10     19.454453   20.989437   24.820469 H          1 MOL1         0.0753
      17    H11     18.458756   20.376448   23.511016 H          1 MOL1         0.0753
      18    C7      19.169177   18.882136   24.876046 C.2        1 MOL1         0.6174
      19    O1      19.930227   18.648053   25.794424 O.co2      1 MOL1        -0.6695
      20    O2      18.250501   18.151624   24.560866 O.co2      1 MOL1        -0.6695
@<TRIPOS>BOND
    1     1     2    1
    2     1     3    1
    3     1     4    2
    4     4     5    1
    5     4     6    1
    6     6     7    1
    7     6     8    1
    8     6     9    1
    9     9    10    1
   10     9    11    1
   11     9    12    1
   12    12    13    1
   13    12    14    1
   14    12    15    1
   15    15    16    1
   16    15    17    1
   17    15    18    1
   18    18    19    1
   19    18    20    2
@<TRIPOS>SUBSTRUCTURE
       1 MOL1            1 RESIDUE      1      MOL     
@<SCITEGIC>MOL_PROPERTY
VM2 Rank
SciTegic.value.IntegerValue
41

@<SCITEGIC>MOL_PROPERTY
Conf_Id
SciTegic.value.IntegerValue
522

@<SCITEGIC>MOL_PROPERTY
Probability
SciTegic.value.DoubleValue
0.20

@<SCITEGIC>MOL_PROPERTY
Sum Probability
SciTegic.value.DoubleValue
98.36

@<SCITEGIC>MOL_PROPERTY
Delta G
SciTegic.value.DoubleValue
2.520

@<SCITEGIC>MOL_PROPERTY
G
SciTegic.value.DoubleValue
-19.369

@<SCITEGIC>MOL_PROPERTY
E
SciTegic.value.DoubleValue
-34.753

@<SCITEGIC>MOL_PROPERTY
-TS
SciTegic.value.DoubleValue
15.384

@<SCITEGIC>MOL_PROPERTY
U+W
SciTegic.value.DoubleValue
-50.849

@<SCITEGIC>MOL_PROPERTY
U
SciTegic.value.DoubleValue
10.197

@<SCITEGIC>MOL_PROPERTY
W
SciTegic.value.DoubleValue
-61.045

@<SCITEGIC>MOL_PROPERTY
W(PB)
SciTegic.value.DoubleValue
-63.242

@<SCITEGIC>MOL_PROPERTY
W(SA)
SciTegic.value.DoubleValue
2.197

@<SCITEGIC>MOL_PROPERTY
Valence
SciTegic.value.DoubleValue
9.837

@<SCITEGIC>MOL_PROPERTY
Coulomb
SciTegic.value.DoubleValue
0.032

@<SCITEGIC>MOL_PROPERTY
VdW
SciTegic.value.DoubleValue
0.328

@<SCITEGIC>MOL_PROPERTY
VdW6
SciTegic.value.DoubleValue
-7.642

@<SCITEGIC>MOL_PROPERTY
VdW12
SciTegic.value.DoubleValue
7.969

@<SCITEGIC>MOL_PROPERTY
Bond
SciTegic.value.DoubleValue
0.151

@<SCITEGIC>MOL_PROPERTY
Angle
SciTegic.value.DoubleValue
2.748

@<SCITEGIC>MOL_PROPERTY
Pdih
SciTegic.value.DoubleValue
6.937

@<SCITEGIC>MOL_PROPERTY
Idih
SciTegic.value.DoubleValue
0.001

@<SCITEGIC>MOL_PROPERTY
Tether
SciTegic.value.DoubleValue
0.000

@<TRIPOS>MOLECULE
guest-s22_vm2.mol2 : vm2 ligand conformer 42
          20          19           1
SMALL
USER_CHARGES
 
@<TRIPOS>ATOM
       1    C1      19.778503   19.069761   18.668538 C.2        1 MOL1        -0.2535
       2    H1      20.473827   18.250078   18.494767 H          1 MOL1         0.0845
       3    H2      19.502028   19.682310   17.812042 H          1 MOL1         0.0845
       4    C2      19.283696   19.319045   19.883749 C.2        1 MOL1        -0.1324
       5    H3      18.589421   20.144982   20.036960 H          1 MOL1         0.0833
       6    C3      19.620214   18.512688   21.118312 C.3        1 MOL1        -0.1813
       7    H4      20.104516   17.568344   20.835399 H          1 MOL1         0.0753
       8    H5      18.691093   18.251037   21.641025 H          1 MOL1         0.0753
       9    C4      20.549681   19.306708   22.063193 C.3        1 MOL1        -0.1855
      10    H6      21.427114   19.645331   21.495209 H          1 MOL1         0.0755
      11    H7      20.035363   20.214948   22.406463 H          1 MOL1         0.0755
      12    C5      21.038434   18.487196   23.282911 C.3        1 MOL1        -0.1855
      13    H8      21.750443   19.096943   23.856180 H          1 MOL1         0.0755
      14    H9      21.598965   17.611395   22.929097 H          1 MOL1         0.0755
      15    C6      19.905857   18.015959   24.235603 C.3        1 MOL1        -0.1958
      16    H10     19.216103   17.342759   23.714022 H          1 MOL1         0.0753
      17    H11     20.341313   17.436845   25.058227 H          1 MOL1         0.0753
      18    C7      19.101440   19.153744   24.857776 C.2        1 MOL1         0.6174
      19    O1      19.635085   19.829608   25.715585 O.co2      1 MOL1        -0.6695
      20    O2      17.958090   19.323292   24.482334 O.co2      1 MOL1        -0.6695
@<TRIPOS>BOND
    1     1     2    1
    2     1     3    1
    3     1     4    2
    4     4     5    1
    5     4     6    1
    6     6     7    1
    7     6     8    1
    8     6     9    1
    9     9    10    1
   10     9    11    1
   11     9    12    1
   12    12    13    1
   13    12    14    1
   14    12    15    1
   15    15    16    1
   16    15    17    1
   17    15    18    1
   18    18    19    1
   19    18    20    2
@<TRIPOS>SUBSTRUCTURE
       1 MOL1            1 RESIDUE      1      MOL     
@<SCITEGIC>MOL_PROPERTY
VM2 Rank
SciTegic.value.IntegerValue
42

@<SCITEGIC>MOL_PROPERTY
Conf_Id
SciTegic.value.IntegerValue
260

@<SCITEGIC>MOL_PROPERTY
Probability
SciTegic.value.DoubleValue
0.18

@<SCITEGIC>MOL_PROPERTY
Sum Probability
SciTegic.value.DoubleValue
98.55

@<SCITEGIC>MOL_PROPERTY
Delta G
SciTegic.value.DoubleValue
2.566

@<SCITEGIC>MOL_PROPERTY
G
SciTegic.value.DoubleValue
-19.323

@<SCITEGIC>MOL_PROPERTY
E
SciTegic.value.DoubleValue
-34.707

@<SCITEGIC>MOL_PROPERTY
-TS
SciTegic.value.DoubleValue
15.384

@<SCITEGIC>MOL_PROPERTY
U+W
SciTegic.value.DoubleValue
-50.804

@<SCITEGIC>MOL_PROPERTY
U
SciTegic.value.DoubleValue
10.196

@<SCITEGIC>MOL_PROPERTY
W
SciTegic.value.DoubleValue
-60.999

@<SCITEGIC>MOL_PROPERTY
W(PB)
SciTegic.value.DoubleValue
-63.181

@<SCITEGIC>MOL_PROPERTY
W(SA)
SciTegic.value.DoubleValue
2.182

@<SCITEGIC>MOL_PROPERTY
Valence
SciTegic.value.DoubleValue
9.837

@<SCITEGIC>MOL_PROPERTY
Coulomb
SciTegic.value.DoubleValue
0.032

@<SCITEGIC>MOL_PROPERTY
VdW
SciTegic.value.DoubleValue
0.328

@<SCITEGIC>MOL_PROPERTY
VdW6
SciTegic.value.DoubleValue
-7.642

@<SCITEGIC>MOL_PROPERTY
VdW12
SciTegic.value.DoubleValue
7.969

@<SCITEGIC>MOL_PROPERTY
Bond
SciTegic.value.DoubleValue
0.151

@<SCITEGIC>MOL_PROPERTY
Angle
SciTegic.value.DoubleValue
2.748

@<SCITEGIC>MOL_PROPERTY
Pdih
SciTegic.value.DoubleValue
6.937

@<SCITEGIC>MOL_PROPERTY
Idih
SciTegic.value.DoubleValue
0.001

@<SCITEGIC>MOL_PROPERTY
Tether
SciTegic.value.DoubleValue
0.000

@<TRIPOS>MOLECULE
guest-s22_vm2.mol2 : vm2 ligand conformer 43
          20          19           1
SMALL
USER_CHARGES
 
@<TRIPOS>ATOM
       1    C1      20.571380   18.050127   19.487924 C.2        1 MOL1        -0.2535
       2    H1      20.630200   17.425517   18.598325 H          1 MOL1         0.0845
       3    H2      21.138707   17.723568   20.356580 H          1 MOL1         0.0845
       4    C2      19.833852   19.166158   19.492725 C.2        1 MOL1        -0.1324
       5    H3      19.288546   19.443601   18.591003 H          1 MOL1         0.0833
       6    C3      19.651507   20.132725   20.652591 C.3        1 MOL1        -0.1813
       7    H4      18.600028   20.447679   20.689486 H          1 MOL1         0.0753
       8    H5      20.218714   21.047990   20.437414 H          1 MOL1         0.0753
       9    C4      20.053684   19.603987   22.051796 C.3        1 MOL1        -0.1855
      10    H6      21.095285   19.257028   22.039899 H          1 MOL1         0.0755
      11    H7      20.022720   20.442985   22.760375 H          1 MOL1         0.0755
      12    C5      19.116074   18.483538   22.563001 C.3        1 MOL1        -0.1855
      13    H8      19.108880   17.651274   21.847475 H          1 MOL1         0.0755
      14    H9      18.084797   18.858944   22.615924 H          1 MOL1         0.0755
      15    C6      19.537654   17.942650   23.953913 C.3        1 MOL1        -0.1958
      16    H10     18.915040   17.078907   24.215095 H          1 MOL1         0.0753
      17    H11     20.575211   17.588644   23.923521 H          1 MOL1         0.0753
      18    C7      19.402970   18.960589   25.082791 C.2        1 MOL1         0.6174
      19    O1      20.413618   19.481129   25.512577 O.co2      1 MOL1        -0.6695
      20    O2      18.290261   19.197098   25.510681 O.co2      1 MOL1        -0.6695
@<TRIPOS>BOND
    1     1     2    1
    2     1     3    1
    3     1     4    2
    4     4     5    1
    5     4     6    1
    6     6     7    1
    7     6     8    1
    8     6     9    1
    9     9    10    1
   10     9    11    1
   11     9    12    1
   12    12    13    1
   13    12    14    1
   14    12    15    1
   15    15    16    1
   16    15    17    1
   17    15    18    1
   18    18    19    1
   19    18    20    2
@<TRIPOS>SUBSTRUCTURE
       1 MOL1            1 RESIDUE      1      MOL     
@<SCITEGIC>MOL_PROPERTY
VM2 Rank
SciTegic.value.IntegerValue
43

@<SCITEGIC>MOL_PROPERTY
Conf_Id
SciTegic.value.IntegerValue
768

@<SCITEGIC>MOL_PROPERTY
Probability
SciTegic.value.DoubleValue
0.18

@<SCITEGIC>MOL_PROPERTY
Sum Probability
SciTegic.value.DoubleValue
98.72

@<SCITEGIC>MOL_PROPERTY
Delta G
SciTegic.value.DoubleValue
2.596

@<SCITEGIC>MOL_PROPERTY
G
SciTegic.value.DoubleValue
-19.293

@<SCITEGIC>MOL_PROPERTY
E
SciTegic.value.DoubleValue
-35.038

@<SCITEGIC>MOL_PROPERTY
-TS
SciTegic.value.DoubleValue
15.744

@<SCITEGIC>MOL_PROPERTY
U+W
SciTegic.value.DoubleValue
-51.134

@<SCITEGIC>MOL_PROPERTY
U
SciTegic.value.DoubleValue
9.738

@<SCITEGIC>MOL_PROPERTY
W
SciTegic.value.DoubleValue
-60.872

@<SCITEGIC>MOL_PROPERTY
W(PB)
SciTegic.value.DoubleValue
-63.018

@<SCITEGIC>MOL_PROPERTY
W(SA)
SciTegic.value.DoubleValue
2.145

@<SCITEGIC>MOL_PROPERTY
Valence
SciTegic.value.DoubleValue
9.029

@<SCITEGIC>MOL_PROPERTY
Coulomb
SciTegic.value.DoubleValue
-0.282

@<SCITEGIC>MOL_PROPERTY
VdW
SciTegic.value.DoubleValue
0.990

@<SCITEGIC>MOL_PROPERTY
VdW6
SciTegic.value.DoubleValue
-8.096

@<SCITEGIC>MOL_PROPERTY
VdW12
SciTegic.value.DoubleValue
9.086

@<SCITEGIC>MOL_PROPERTY
Bond
SciTegic.value.DoubleValue
0.190

@<SCITEGIC>MOL_PROPERTY
Angle
SciTegic.value.DoubleValue
3.359

@<SCITEGIC>MOL_PROPERTY
Pdih
SciTegic.value.DoubleValue
5.480

@<SCITEGIC>MOL_PROPERTY
Idih
SciTegic.value.DoubleValue
0.000

@<SCITEGIC>MOL_PROPERTY
Tether
SciTegic.value.DoubleValue
0.000

@<TRIPOS>MOLECULE
guest-s22_vm2.mol2 : vm2 ligand conformer 44
          20          19           1
SMALL
USER_CHARGES
 
@<TRIPOS>ATOM
       1    C1      20.178557   17.931816   19.437064 C.2        1 MOL1        -0.2535
       2    H1      19.696756   17.288852   20.170227 H          1 MOL1         0.0845
       3    H2      20.678552   17.440333   18.604337 H          1 MOL1         0.0845
       4    C2      20.164130   19.265840   19.535382 C.2        1 MOL1        -0.1324
       5    H3      20.662553   19.858100   18.768416 H          1 MOL1         0.0833
       6    C3      19.514410   20.091368   20.634997 C.3        1 MOL1        -0.1813
       7    H4      18.609133   20.562592   20.229836 H          1 MOL1         0.0753
       8    H5      20.181476   20.924581   20.893736 H          1 MOL1         0.0753
       9    C4      19.152268   19.332026   21.935511 C.3        1 MOL1        -0.1855
      10    H6      18.555337   20.000315   22.571140 H          1 MOL1         0.0755
      11    H7      18.504648   18.475767   21.705593 H          1 MOL1         0.0755
      12    C5      20.398723   18.870005   22.728442 C.3        1 MOL1        -0.1855
      13    H8      21.013123   19.741495   22.993542 H          1 MOL1         0.0755
      14    H9      21.024218   18.228403   22.094570 H          1 MOL1         0.0755
      15    C6      20.029459   18.090847   24.017426 C.3        1 MOL1        -0.1958
      16    H10     19.393062   17.232270   23.771230 H          1 MOL1         0.0753
      17    H11     20.940550   17.689421   24.476433 H          1 MOL1         0.0753
      18    C7      19.321008   18.935941   25.072235 C.2        1 MOL1         0.6174
      19    O1      19.989384   19.709217   25.729854 O.co2      1 MOL1        -0.6695
      20    O2      18.123060   18.790939   25.217090 O.co2      1 MOL1        -0.6695
@<TRIPOS>BOND
    1     1     2    1
    2     1     3    1
    3     1     4    2
    4     4     5    1
    5     4     6    1
    6     6     7    1
    7     6     8    1
    8     6     9    1
    9     9    10    1
   10     9    11    1
   11     9    12    1
   12    12    13    1
   13    12    14    1
   14    12    15    1
   15    15    16    1
   16    15    17    1
   17    15    18    1
   18    18    19    1
   19    18    20    2
@<TRIPOS>SUBSTRUCTURE
       1 MOL1            1 RESIDUE      1      MOL     
@<SCITEGIC>MOL_PROPERTY
VM2 Rank
SciTegic.value.IntegerValue
44

@<SCITEGIC>MOL_PROPERTY
Conf_Id
SciTegic.value.IntegerValue
74

@<SCITEGIC>MOL_PROPERTY
Probability
SciTegic.value.DoubleValue
0.17

@<SCITEGIC>MOL_PROPERTY
Sum Probability
SciTegic.value.DoubleValue
98.89

@<SCITEGIC>MOL_PROPERTY
Delta G
SciTegic.value.DoubleValue
2.627

@<SCITEGIC>MOL_PROPERTY
G
SciTegic.value.DoubleValue
-19.262

@<SCITEGIC>MOL_PROPERTY
E
SciTegic.value.DoubleValue
-35.007

@<SCITEGIC>MOL_PROPERTY
-TS
SciTegic.value.DoubleValue
15.745

@<SCITEGIC>MOL_PROPERTY
U+W
SciTegic.value.DoubleValue
-51.104

@<SCITEGIC>MOL_PROPERTY
U
SciTegic.value.DoubleValue
9.738

@<SCITEGIC>MOL_PROPERTY
W
SciTegic.value.DoubleValue
-60.842

@<SCITEGIC>MOL_PROPERTY
W(PB)
SciTegic.value.DoubleValue
-63.013

@<SCITEGIC>MOL_PROPERTY
W(SA)
SciTegic.value.DoubleValue
2.172

@<SCITEGIC>MOL_PROPERTY
Valence
SciTegic.value.DoubleValue
9.029

@<SCITEGIC>MOL_PROPERTY
Coulomb
SciTegic.value.DoubleValue
-0.281

@<SCITEGIC>MOL_PROPERTY
VdW
SciTegic.value.DoubleValue
0.990

@<SCITEGIC>MOL_PROPERTY
VdW6
SciTegic.value.DoubleValue
-8.096

@<SCITEGIC>MOL_PROPERTY
VdW12
SciTegic.value.DoubleValue
9.086

@<SCITEGIC>MOL_PROPERTY
Bond
SciTegic.value.DoubleValue
0.190

@<SCITEGIC>MOL_PROPERTY
Angle
SciTegic.value.DoubleValue
3.359

@<SCITEGIC>MOL_PROPERTY
Pdih
SciTegic.value.DoubleValue
5.480

@<SCITEGIC>MOL_PROPERTY
Idih
SciTegic.value.DoubleValue
0.000

@<SCITEGIC>MOL_PROPERTY
Tether
SciTegic.value.DoubleValue
0.000

@<TRIPOS>MOLECULE
guest-s22_vm2.mol2 : vm2 ligand conformer 45
          20          19           1
SMALL
USER_CHARGES
 
@<TRIPOS>ATOM
       1    C1      19.818432   17.413318   19.552710 C.2        1 MOL1        -0.2535
       2    H1      19.234442   16.788238   20.226563 H          1 MOL1         0.0845
       3    H2      20.256035   16.935028   18.678106 H          1 MOL1         0.0845
       4    C2      19.996229   18.715703   19.788991 C.2        1 MOL1        -0.1324
       5    H3      20.585203   19.324286   19.103206 H          1 MOL1         0.0833
       6    C3      19.418399   19.447285   20.980158 C.3        1 MOL1        -0.1813
       7    H4      18.628027   18.840990   21.442032 H          1 MOL1         0.0753
       8    H5      18.948888   20.381547   20.644825 H          1 MOL1         0.0753
       9    C4      20.513259   19.760458   22.024405 C.3        1 MOL1        -0.1855
      10    H6      20.928481   18.819627   22.411568 H          1 MOL1         0.0755
      11    H7      21.342549   20.281301   21.526498 H          1 MOL1         0.0755
      12    C5      20.015551   20.638346   23.199095 C.3        1 MOL1        -0.1855
      13    H8      19.654621   21.598219   22.805694 H          1 MOL1         0.0755
      14    H9      20.868706   20.874222   23.850161 H          1 MOL1         0.0755
      15    C6      18.897386   19.988105   24.059045 C.3        1 MOL1        -0.1958
      16    H10     18.602289   20.681852   24.854833 H          1 MOL1         0.0753
      17    H11     18.000094   19.808849   23.455919 H          1 MOL1         0.0753
      18    C7      19.306407   18.678856   24.728063 C.2        1 MOL1         0.6174
      19    O1      20.106886   18.728398   25.641455 O.co2      1 MOL1        -0.6695
      20    O2      18.798452   17.647530   24.334077 O.co2      1 MOL1        -0.6695
@<TRIPOS>BOND
    1     1     2    1
    2     1     3    1
    3     1     4    2
    4     4     5    1
    5     4     6    1
    6     6     7    1
    7     6     8    1
    8     6     9    1
    9     9    10    1
   10     9    11    1
   11     9    12    1
   12    12    13    1
   13    12    14    1
   14    12    15    1
   15    15    16    1
   16    15    17    1
   17    15    18    1
   18    18    19    1
   19    18    20    2
@<TRIPOS>SUBSTRUCTURE
       1 MOL1            1 RESIDUE      1      MOL     
@<SCITEGIC>MOL_PROPERTY
VM2 Rank
SciTegic.value.IntegerValue
45

@<SCITEGIC>MOL_PROPERTY
Conf_Id
SciTegic.value.IntegerValue
549

@<SCITEGIC>MOL_PROPERTY
Probability
SciTegic.value.DoubleValue
0.14

@<SCITEGIC>MOL_PROPERTY
Sum Probability
SciTegic.value.DoubleValue
99.03

@<SCITEGIC>MOL_PROPERTY
Delta G
SciTegic.value.DoubleValue
2.724

@<SCITEGIC>MOL_PROPERTY
G
SciTegic.value.DoubleValue
-19.165

@<SCITEGIC>MOL_PROPERTY
E
SciTegic.value.DoubleValue
-34.522

@<SCITEGIC>MOL_PROPERTY
-TS
SciTegic.value.DoubleValue
15.358

@<SCITEGIC>MOL_PROPERTY
U+W
SciTegic.value.DoubleValue
-50.619

@<SCITEGIC>MOL_PROPERTY
U
SciTegic.value.DoubleValue
11.125

@<SCITEGIC>MOL_PROPERTY
W
SciTegic.value.DoubleValue
-61.744

@<SCITEGIC>MOL_PROPERTY
W(PB)
SciTegic.value.DoubleValue
-63.912

@<SCITEGIC>MOL_PROPERTY
W(SA)
SciTegic.value.DoubleValue
2.168

@<SCITEGIC>MOL_PROPERTY
Valence
SciTegic.value.DoubleValue
9.852

@<SCITEGIC>MOL_PROPERTY
Coulomb
SciTegic.value.DoubleValue
0.993

@<SCITEGIC>MOL_PROPERTY
VdW
SciTegic.value.DoubleValue
0.281

@<SCITEGIC>MOL_PROPERTY
VdW6
SciTegic.value.DoubleValue
-7.706

@<SCITEGIC>MOL_PROPERTY
VdW12
SciTegic.value.DoubleValue
7.986

@<SCITEGIC>MOL_PROPERTY
Bond
SciTegic.value.DoubleValue
0.153

@<SCITEGIC>MOL_PROPERTY
Angle
SciTegic.value.DoubleValue
2.748

@<SCITEGIC>MOL_PROPERTY
Pdih
SciTegic.value.DoubleValue
6.950

@<SCITEGIC>MOL_PROPERTY
Idih
SciTegic.value.DoubleValue
0.001

@<SCITEGIC>MOL_PROPERTY
Tether
SciTegic.value.DoubleValue
0.000

@<TRIPOS>MOLECULE
guest-s22_vm2.mol2 : vm2 ligand conformer 46
          20          19           1
SMALL
USER_CHARGES
 
@<TRIPOS>ATOM
       1    C1      21.116351   17.804375   19.720420 C.2        1 MOL1        -0.2535
       2    H1      21.769893   17.552039   20.554120 H          1 MOL1         0.0845
       3    H2      21.227878   17.227906   18.803668 H          1 MOL1         0.0845
       4    C2      20.209559   18.780148   19.816558 C.2        1 MOL1        -0.1324
       5    H3      19.563746   19.016822   18.971291 H          1 MOL1         0.0833
       6    C3      19.999442   19.622432   21.055259 C.3        1 MOL1        -0.1813
       7    H4      19.947551   20.682572   20.773930 H          1 MOL1         0.0753
       8    H5      20.858715   19.513197   21.730042 H          1 MOL1         0.0753
       9    C4      18.703256   19.214952   21.790857 C.3        1 MOL1        -0.1855
      10    H6      17.867531   19.234010   21.078036 H          1 MOL1         0.0755
      11    H7      18.790457   18.175244   22.135633 H          1 MOL1         0.0755
      12    C5      18.352724   20.137141   22.984587 C.3        1 MOL1        -0.1855
      13    H8      17.385135   19.824096   23.400725 H          1 MOL1         0.0755
      14    H9      18.212673   21.163620   22.619737 H          1 MOL1         0.0755
      15    C6      19.407405   20.141900   24.124872 C.3        1 MOL1        -0.1958
      16    H10     20.368536   20.523024   23.761550 H          1 MOL1         0.0753
      17    H11     19.082074   20.826444   24.916833 H          1 MOL1         0.0753
      18    C7      19.634805   18.777822   24.770314 C.2        1 MOL1         0.6174
      19    O1      20.697472   18.220135   24.578999 O.co2      1 MOL1        -0.6695
      20    O2      18.749985   18.319093   25.466136 O.co2      1 MOL1        -0.6695
@<TRIPOS>BOND
    1     1     2    1
    2     1     3    1
    3     1     4    2
    4     4     5    1
    5     4     6    1
    6     6     7    1
    7     6     8    1
    8     6     9    1
    9     9    10    1
   10     9    11    1
   11     9    12    1
   12    12    13    1
   13    12    14    1
   14    12    15    1
   15    15    16    1
   16    15    17    1
   17    15    18    1
   18    18    19    1
   19    18    20    2
@<TRIPOS>SUBSTRUCTURE
       1 MOL1            1 RESIDUE      1      MOL     
@<SCITEGIC>MOL_PROPERTY
VM2 Rank
SciTegic.value.IntegerValue
46

@<SCITEGIC>MOL_PROPERTY
Conf_Id
SciTegic.value.IntegerValue
558

@<SCITEGIC>MOL_PROPERTY
Probability
SciTegic.value.DoubleValue
0.14

@<SCITEGIC>MOL_PROPERTY
Sum Probability
SciTegic.value.DoubleValue
99.17

@<SCITEGIC>MOL_PROPERTY
Delta G
SciTegic.value.DoubleValue
2.743

@<SCITEGIC>MOL_PROPERTY
G
SciTegic.value.DoubleValue
-19.147

@<SCITEGIC>MOL_PROPERTY
E
SciTegic.value.DoubleValue
-34.505

@<SCITEGIC>MOL_PROPERTY
-TS
SciTegic.value.DoubleValue
15.358

@<SCITEGIC>MOL_PROPERTY
U+W
SciTegic.value.DoubleValue
-50.601

@<SCITEGIC>MOL_PROPERTY
U
SciTegic.value.DoubleValue
11.126

@<SCITEGIC>MOL_PROPERTY
W
SciTegic.value.DoubleValue
-61.727

@<SCITEGIC>MOL_PROPERTY
W(PB)
SciTegic.value.DoubleValue
-63.877

@<SCITEGIC>MOL_PROPERTY
W(SA)
SciTegic.value.DoubleValue
2.149

@<SCITEGIC>MOL_PROPERTY
Valence
SciTegic.value.DoubleValue
9.852

@<SCITEGIC>MOL_PROPERTY
Coulomb
SciTegic.value.DoubleValue
0.993

@<SCITEGIC>MOL_PROPERTY
VdW
SciTegic.value.DoubleValue
0.281

@<SCITEGIC>MOL_PROPERTY
VdW6
SciTegic.value.DoubleValue
-7.706

@<SCITEGIC>MOL_PROPERTY
VdW12
SciTegic.value.DoubleValue
7.987

@<SCITEGIC>MOL_PROPERTY
Bond
SciTegic.value.DoubleValue
0.153

@<SCITEGIC>MOL_PROPERTY
Angle
SciTegic.value.DoubleValue
2.748

@<SCITEGIC>MOL_PROPERTY
Pdih
SciTegic.value.DoubleValue
6.950

@<SCITEGIC>MOL_PROPERTY
Idih
SciTegic.value.DoubleValue
0.001

@<SCITEGIC>MOL_PROPERTY
Tether
SciTegic.value.DoubleValue
0.000

@<TRIPOS>MOLECULE
guest-s22_vm2.mol2 : vm2 ligand conformer 47
          20          19           1
SMALL
USER_CHARGES
 
@<TRIPOS>ATOM
       1    C1      20.773331   17.720109   20.491185 C.2        1 MOL1        -0.2535
       2    H1      21.571650   17.130667   20.043801 H          1 MOL1         0.0845
       3    H2      20.434194   17.418055   21.479957 H          1 MOL1         0.0845
       4    C2      20.244687   18.762056   19.839530 C.2        1 MOL1        -0.1324
       5    H3      20.625480   19.015229   18.850436 H          1 MOL1         0.0833
       6    C3      19.133793   19.677127   20.331171 C.3        1 MOL1        -0.1813
       7    H4      18.223951   19.461234   19.755575 H          1 MOL1         0.0753
       8    H5      19.392379   20.715063   20.082343 H          1 MOL1         0.0753
       9    C4      18.805483   19.600054   21.842813 C.3        1 MOL1        -0.1855
      10    H6      17.891220   20.178997   22.031453 H          1 MOL1         0.0755
      11    H7      18.570479   18.564476   22.122636 H          1 MOL1         0.0755
      12    C5      19.939439   20.162644   22.733610 C.3        1 MOL1        -0.1855
      13    H8      20.134353   21.206315   22.452747 H          1 MOL1         0.0755
      14    H9      20.872648   19.611921   22.555699 H          1 MOL1         0.0755
      15    C6      19.593844   20.102787   24.244001 C.3        1 MOL1        -0.1958
      16    H10     20.370389   20.621364   24.818445 H          1 MOL1         0.0753
      17    H11     18.650600   20.627332   24.438629 H          1 MOL1         0.0753
      18    C7      19.486419   18.684645   24.797642 C.2        1 MOL1         0.6174
      19    O1      20.515248   18.074884   25.013857 O.co2      1 MOL1        -0.6695
      20    O2      18.378756   18.233695   25.014192 O.co2      1 MOL1        -0.6695
@<TRIPOS>BOND
    1     1     2    1
    2     1     3    1
    3     1     4    2
    4     4     5    1
    5     4     6    1
    6     6     7    1
    7     6     8    1
    8     6     9    1
    9     9    10    1
   10     9    11    1
   11     9    12    1
   12    12    13    1
   13    12    14    1
   14    12    15    1
   15    15    16    1
   16    15    17    1
   17    15    18    1
   18    18    19    1
   19    18    20    2
@<TRIPOS>SUBSTRUCTURE
       1 MOL1            1 RESIDUE      1      MOL     
@<SCITEGIC>MOL_PROPERTY
VM2 Rank
SciTegic.value.IntegerValue
47

@<SCITEGIC>MOL_PROPERTY
Conf_Id
SciTegic.value.IntegerValue
748

@<SCITEGIC>MOL_PROPERTY
Probability
SciTegic.value.DoubleValue
0.12

@<SCITEGIC>MOL_PROPERTY
Sum Probability
SciTegic.value.DoubleValue
99.28

@<SCITEGIC>MOL_PROPERTY
Delta G
SciTegic.value.DoubleValue
2.833

@<SCITEGIC>MOL_PROPERTY
G
SciTegic.value.DoubleValue
-19.056

@<SCITEGIC>MOL_PROPERTY
E
SciTegic.value.DoubleValue
-34.884

@<SCITEGIC>MOL_PROPERTY
-TS
SciTegic.value.DoubleValue
15.828

@<SCITEGIC>MOL_PROPERTY
U+W
SciTegic.value.DoubleValue
-50.980

@<SCITEGIC>MOL_PROPERTY
U
SciTegic.value.DoubleValue
11.076

@<SCITEGIC>MOL_PROPERTY
W
SciTegic.value.DoubleValue
-62.056

@<SCITEGIC>MOL_PROPERTY
W(PB)
SciTegic.value.DoubleValue
-64.207

@<SCITEGIC>MOL_PROPERTY
W(SA)
SciTegic.value.DoubleValue
2.151

@<SCITEGIC>MOL_PROPERTY
Valence
SciTegic.value.DoubleValue
8.972

@<SCITEGIC>MOL_PROPERTY
Coulomb
SciTegic.value.DoubleValue
1.263

@<SCITEGIC>MOL_PROPERTY
VdW
SciTegic.value.DoubleValue
0.841

@<SCITEGIC>MOL_PROPERTY
VdW6
SciTegic.value.DoubleValue
-8.354

@<SCITEGIC>MOL_PROPERTY
VdW12
SciTegic.value.DoubleValue
9.194

@<SCITEGIC>MOL_PROPERTY
Bond
SciTegic.value.DoubleValue
0.189

@<SCITEGIC>MOL_PROPERTY
Angle
SciTegic.value.DoubleValue
3.355

@<SCITEGIC>MOL_PROPERTY
Pdih
SciTegic.value.DoubleValue
5.428

@<SCITEGIC>MOL_PROPERTY
Idih
SciTegic.value.DoubleValue
0.001

@<SCITEGIC>MOL_PROPERTY
Tether
SciTegic.value.DoubleValue
0.000

@<TRIPOS>MOLECULE
guest-s22_vm2.mol2 : vm2 ligand conformer 48
          20          19           1
SMALL
USER_CHARGES
 
@<TRIPOS>ATOM
       1    C1      19.732183   17.311395   20.164504 C.2        1 MOL1        -0.2535
       2    H1      20.318974   16.399280   20.070942 H          1 MOL1         0.0845
       3    H2      18.649674   17.207707   20.217473 H          1 MOL1         0.0845
       4    C2      20.321540   18.509124   20.215005 C.2        1 MOL1        -0.1324
       5    H3      21.406895   18.588930   20.160930 H          1 MOL1         0.0833
       6    C3      19.575277   19.820531   20.344045 C.3        1 MOL1        -0.1813
       7    H4      18.490122   19.656067   20.386301 H          1 MOL1         0.0753
       8    H5      19.761793   20.407229   19.434740 H          1 MOL1         0.0753
       9    C4      20.029712   20.668067   21.558239 C.3        1 MOL1        -0.1855
      10    H6      21.126098   20.668594   21.628009 H          1 MOL1         0.0755
      11    H7      19.740382   21.710667   21.368015 H          1 MOL1         0.0755
      12    C5      19.409730   20.251427   22.915691 C.3        1 MOL1        -0.1855
      13    H8      18.313781   20.244407   22.838801 H          1 MOL1         0.0755
      14    H9      19.660787   21.019920   23.659903 H          1 MOL1         0.0755
      15    C6      19.899789   18.879910   23.445844 C.3        1 MOL1        -0.1958
      16    H10     19.537273   18.069580   22.805570 H          1 MOL1         0.0753
      17    H11     20.995381   18.838571   23.438127 H          1 MOL1         0.0753
      18    C7      19.423606   18.591370   24.864859 C.2        1 MOL1         0.6174
      19    O1      20.140796   18.921834   25.788656 O.co2      1 MOL1        -0.6695
      20    O2      18.338367   18.064341   25.011157 O.co2      1 MOL1        -0.6695
@<TRIPOS>BOND
    1     1     2    1
    2     1     3    1
    3     1     4    2
    4     4     5    1
    5     4     6    1
    6     6     7    1
    7     6     8    1
    8     6     9    1
    9     9    10    1
   10     9    11    1
   11     9    12    1
   12    12    13    1
   13    12    14    1
   14    12    15    1
   15    15    16    1
   16    15    17    1
   17    15    18    1
   18    18    19    1
   19    18    20    2
@<TRIPOS>SUBSTRUCTURE
       1 MOL1            1 RESIDUE      1      MOL     
@<SCITEGIC>MOL_PROPERTY
VM2 Rank
SciTegic.value.IntegerValue
48

@<SCITEGIC>MOL_PROPERTY
Conf_Id
SciTegic.value.IntegerValue
63

@<SCITEGIC>MOL_PROPERTY
Probability
SciTegic.value.DoubleValue
0.11

@<SCITEGIC>MOL_PROPERTY
Sum Probability
SciTegic.value.DoubleValue
99.39

@<SCITEGIC>MOL_PROPERTY
Delta G
SciTegic.value.DoubleValue
2.873

@<SCITEGIC>MOL_PROPERTY
G
SciTegic.value.DoubleValue
-19.017

@<SCITEGIC>MOL_PROPERTY
E
SciTegic.value.DoubleValue
-34.233

@<SCITEGIC>MOL_PROPERTY
-TS
SciTegic.value.DoubleValue
15.216

@<SCITEGIC>MOL_PROPERTY
U+W
SciTegic.value.DoubleValue
-50.329

@<SCITEGIC>MOL_PROPERTY
U
SciTegic.value.DoubleValue
11.028

@<SCITEGIC>MOL_PROPERTY
W
SciTegic.value.DoubleValue
-61.357

@<SCITEGIC>MOL_PROPERTY
W(PB)
SciTegic.value.DoubleValue
-63.524

@<SCITEGIC>MOL_PROPERTY
W(SA)
SciTegic.value.DoubleValue
2.167

@<SCITEGIC>MOL_PROPERTY
Valence
SciTegic.value.DoubleValue
11.008

@<SCITEGIC>MOL_PROPERTY
Coulomb
SciTegic.value.DoubleValue
-0.464

@<SCITEGIC>MOL_PROPERTY
VdW
SciTegic.value.DoubleValue
0.484

@<SCITEGIC>MOL_PROPERTY
VdW6
SciTegic.value.DoubleValue
-7.637

@<SCITEGIC>MOL_PROPERTY
VdW12
SciTegic.value.DoubleValue
8.122

@<SCITEGIC>MOL_PROPERTY
Bond
SciTegic.value.DoubleValue
0.158

@<SCITEGIC>MOL_PROPERTY
Angle
SciTegic.value.DoubleValue
3.060

@<SCITEGIC>MOL_PROPERTY
Pdih
SciTegic.value.DoubleValue
7.789

@<SCITEGIC>MOL_PROPERTY
Idih
SciTegic.value.DoubleValue
0.001

@<SCITEGIC>MOL_PROPERTY
Tether
SciTegic.value.DoubleValue
0.000

@<TRIPOS>MOLECULE
guest-s22_vm2.mol2 : vm2 ligand conformer 49
          20          19           1
SMALL
USER_CHARGES
 
@<TRIPOS>ATOM
       1    C1      18.863105   17.706282   20.055915 C.2        1 MOL1        -0.2535
       2    H1      19.464333   16.837599   20.319162 H          1 MOL1         0.0845
       3    H2      17.830415   17.529969   19.760116 H          1 MOL1         0.0845
       4    C2      19.368209   18.942292   20.095881 C.2        1 MOL1        -0.1324
       5    H3      18.747608   19.797185   19.828861 H          1 MOL1         0.0833
       6    C3      20.792045   19.267719   20.496053 C.3        1 MOL1        -0.1813
       7    H4      21.295482   19.710479   19.626366 H          1 MOL1         0.0753
       8    H5      21.351943   18.355828   20.743772 H          1 MOL1         0.0753
       9    C4      20.884704   20.279558   21.665110 C.3        1 MOL1        -0.1855
      10    H6      21.883098   20.737011   21.635854 H          1 MOL1         0.0755
      11    H7      20.172949   21.101721   21.508962 H          1 MOL1         0.0755
      12    C5      20.691874   19.668729   23.075909 C.3        1 MOL1        -0.1855
      13    H8      20.951457   20.433317   23.821217 H          1 MOL1         0.0755
      14    H9      21.399897   18.841856   23.224390 H          1 MOL1         0.0755
      15    C6      19.251552   19.174505   23.364863 C.3        1 MOL1        -0.1958
      16    H10     18.525091   19.961259   23.129572 H          1 MOL1         0.0753
      17    H11     19.010501   18.309009   22.739712 H          1 MOL1         0.0753
      18    C7      19.049916   18.761092   24.818149 C.2        1 MOL1         0.6174
      19    O1      18.650664   19.599117   25.602549 O.co2      1 MOL1        -0.6695
      20    O2      19.318932   17.618706   25.133572 O.co2      1 MOL1        -0.6695
@<TRIPOS>BOND
    1     1     2    1
    2     1     3    1
    3     1     4    2
    4     4     5    1
    5     4     6    1
    6     6     7    1
    7     6     8    1
    8     6     9    1
    9     9    10    1
   10     9    11    1
   11     9    12    1
   12    12    13    1
   13    12    14    1
   14    12    15    1
   15    15    16    1
   16    15    17    1
   17    15    18    1
   18    18    19    1
   19    18    20    2
@<TRIPOS>SUBSTRUCTURE
       1 MOL1            1 RESIDUE      1      MOL     
@<SCITEGIC>MOL_PROPERTY
VM2 Rank
SciTegic.value.IntegerValue
49

@<SCITEGIC>MOL_PROPERTY
Conf_Id
SciTegic.value.IntegerValue
384

@<SCITEGIC>MOL_PROPERTY
Probability
SciTegic.value.DoubleValue
0.11

@<SCITEGIC>MOL_PROPERTY
Sum Probability
SciTegic.value.DoubleValue
99.50

@<SCITEGIC>MOL_PROPERTY
Delta G
SciTegic.value.DoubleValue
2.879

@<SCITEGIC>MOL_PROPERTY
G
SciTegic.value.DoubleValue
-19.010

@<SCITEGIC>MOL_PROPERTY
E
SciTegic.value.DoubleValue
-34.226

@<SCITEGIC>MOL_PROPERTY
-TS
SciTegic.value.DoubleValue
15.217

@<SCITEGIC>MOL_PROPERTY
U+W
SciTegic.value.DoubleValue
-50.323

@<SCITEGIC>MOL_PROPERTY
U
SciTegic.value.DoubleValue
11.028

@<SCITEGIC>MOL_PROPERTY
W
SciTegic.value.DoubleValue
-61.351

@<SCITEGIC>MOL_PROPERTY
W(PB)
SciTegic.value.DoubleValue
-63.501

@<SCITEGIC>MOL_PROPERTY
W(SA)
SciTegic.value.DoubleValue
2.150

@<SCITEGIC>MOL_PROPERTY
Valence
SciTegic.value.DoubleValue
11.008

@<SCITEGIC>MOL_PROPERTY
Coulomb
SciTegic.value.DoubleValue
-0.464

@<SCITEGIC>MOL_PROPERTY
VdW
SciTegic.value.DoubleValue
0.484

@<SCITEGIC>MOL_PROPERTY
VdW6
SciTegic.value.DoubleValue
-7.638

@<SCITEGIC>MOL_PROPERTY
VdW12
SciTegic.value.DoubleValue
8.122

@<SCITEGIC>MOL_PROPERTY
Bond
SciTegic.value.DoubleValue
0.158

@<SCITEGIC>MOL_PROPERTY
Angle
SciTegic.value.DoubleValue
3.060

@<SCITEGIC>MOL_PROPERTY
Pdih
SciTegic.value.DoubleValue
7.789

@<SCITEGIC>MOL_PROPERTY
Idih
SciTegic.value.DoubleValue
0.001

@<SCITEGIC>MOL_PROPERTY
Tether
SciTegic.value.DoubleValue
0.000

@<TRIPOS>MOLECULE
guest-s22_vm2.mol2 : vm2 ligand conformer 50
          20          19           1
SMALL
USER_CHARGES
 
@<TRIPOS>ATOM
       1    C1      21.339331   19.720610   20.598664 C.2        1 MOL1        -0.2535
       2    H1      21.180330   20.055727   21.621570 H          1 MOL1         0.0845
       3    H2      22.340229   19.846878   20.189805 H          1 MOL1         0.0845
       4    C2      20.362733   19.179022   19.861973 C.2        1 MOL1        -0.1324
       5    H3      20.582807   18.863464   18.842466 H          1 MOL1         0.0833
       6    C3      18.924109   18.935836   20.291363 C.3        1 MOL1        -0.1813
       7    H4      18.609158   17.946365   19.933807 H          1 MOL1         0.0753
       8    H5      18.277742   19.651055   19.765621 H          1 MOL1         0.0753
       9    C4      18.642112   19.022975   21.811783 C.3        1 MOL1        -0.1855
      10    H6      18.975092   19.995050   22.199270 H          1 MOL1         0.0755
      11    H7      17.555200   18.991744   21.967613 H          1 MOL1         0.0755
      12    C5      19.289434   17.865815   22.610431 C.3        1 MOL1        -0.1855
      13    H8      20.377425   17.862077   22.461813 H          1 MOL1         0.0755
      14    H9      18.917954   16.907949   22.222332 H          1 MOL1         0.0755
      15    C6      18.983968   17.947658   24.128419 C.3        1 MOL1        -0.1958
      16    H10     17.900641   17.977175   24.296547 H          1 MOL1         0.0753
      17    H11     19.358572   17.045840   24.626743 H          1 MOL1         0.0753
      18    C7      19.618110   19.149900   24.822438 C.2        1 MOL1         0.6174
      19    O1      20.807346   19.107028   25.069268 O.co2      1 MOL1        -0.6695
      20    O2      18.903857   20.089155   25.113660 O.co2      1 MOL1        -0.6695
@<TRIPOS>BOND
    1     1     2    1
    2     1     3    1
    3     1     4    2
    4     4     5    1
    5     4     6    1
    6     6     7    1
    7     6     8    1
    8     6     9    1
    9     9    10    1
   10     9    11    1
   11     9    12    1
   12    12    13    1
   13    12    14    1
   14    12    15    1
   15    15    16    1
   16    15    17    1
   17    15    18    1
   18    18    19    1
   19    18    20    2
@<TRIPOS>SUBSTRUCTURE
       1 MOL1            1 RESIDUE      1      MOL     
@<SCITEGIC>MOL_PROPERTY
VM2 Rank
SciTegic.value.IntegerValue
50

@<SCITEGIC>MOL_PROPERTY
Conf_Id
SciTegic.value.IntegerValue
507

@<SCITEGIC>MOL_PROPERTY
Probability
SciTegic.value.DoubleValue
0.10

@<SCITEGIC>MOL_PROPERTY
Sum Probability
SciTegic.value.DoubleValue
99.61

@<SCITEGIC>MOL_PROPERTY
Delta G
SciTegic.value.DoubleValue
2.909

@<SCITEGIC>MOL_PROPERTY
G
SciTegic.value.DoubleValue
-18.980

@<SCITEGIC>MOL_PROPERTY
E
SciTegic.value.DoubleValue
-34.809

@<SCITEGIC>MOL_PROPERTY
-TS
SciTegic.value.DoubleValue
15.829

@<SCITEGIC>MOL_PROPERTY
U+W
SciTegic.value.DoubleValue
-50.905

@<SCITEGIC>MOL_PROPERTY
U
SciTegic.value.DoubleValue
11.075

@<SCITEGIC>MOL_PROPERTY
W
SciTegic.value.DoubleValue
-61.981

@<SCITEGIC>MOL_PROPERTY
W(PB)
SciTegic.value.DoubleValue
-64.112

@<SCITEGIC>MOL_PROPERTY
W(SA)
SciTegic.value.DoubleValue
2.131

@<SCITEGIC>MOL_PROPERTY
Valence
SciTegic.value.DoubleValue
8.972

@<SCITEGIC>MOL_PROPERTY
Coulomb
SciTegic.value.DoubleValue
1.262

@<SCITEGIC>MOL_PROPERTY
VdW
SciTegic.value.DoubleValue
0.841

@<SCITEGIC>MOL_PROPERTY
VdW6
SciTegic.value.DoubleValue
-8.354

@<SCITEGIC>MOL_PROPERTY
VdW12
SciTegic.value.DoubleValue
9.195

@<SCITEGIC>MOL_PROPERTY
Bond
SciTegic.value.DoubleValue
0.189

@<SCITEGIC>MOL_PROPERTY
Angle
SciTegic.value.DoubleValue
3.355

@<SCITEGIC>MOL_PROPERTY
Pdih
SciTegic.value.DoubleValue
5.428

@<SCITEGIC>MOL_PROPERTY
Idih
SciTegic.value.DoubleValue
0.001

@<SCITEGIC>MOL_PROPERTY
Tether
SciTegic.value.DoubleValue
0.000

@<TRIPOS>MOLECULE
guest-s22_vm2.mol2 : vm2 ligand conformer 51
          20          19           1
SMALL
USER_CHARGES
 
@<TRIPOS>ATOM
       1    C1      19.993168   18.677862   18.843255 C.2        1 MOL1        -0.2535
       2    H1      19.827845   19.670455   18.427452 H          1 MOL1         0.0845
       3    H2      20.402454   17.918200   18.179520 H          1 MOL1         0.0845
       4    C2      19.708981   18.399765   20.118236 C.2        1 MOL1        -0.1324
       5    H3      19.879727   17.399075   20.514077 H          1 MOL1         0.0833
       6    C3      19.133859   19.401213   21.096942 C.3        1 MOL1        -0.1813
       7    H4      18.316950   18.942459   21.668900 H          1 MOL1         0.0753
       8    H5      18.681299   20.237685   20.547653 H          1 MOL1         0.0753
       9    C4      20.204184   19.968244   22.060058 C.3        1 MOL1        -0.1855
      10    H6      20.965446   20.497311   21.470650 H          1 MOL1         0.0755
      11    H7      19.737582   20.725943   22.704376 H          1 MOL1         0.0755
      12    C5      20.906874   18.906999   22.945539 C.3        1 MOL1        -0.1855
      13    H8      21.660691   19.410316   23.566517 H          1 MOL1         0.0755
      14    H9      21.459410   18.204919   22.307194 H          1 MOL1         0.0755
      15    C6      19.950557   18.108546   23.872964 C.3        1 MOL1        -0.1958
      16    H10     19.230309   17.532418   23.281054 H          1 MOL1         0.0753
      17    H11     20.530317   17.379668   24.451084 H          1 MOL1         0.0753
      18    C7      19.184018   18.973008   24.869792 C.2        1 MOL1         0.6174
      19    O1      19.797145   19.447447   25.805977 O.co2      1 MOL1        -0.6695
      20    O2      17.992213   19.134917   24.695237 O.co2      1 MOL1        -0.6695
@<TRIPOS>BOND
    1     1     2    1
    2     1     3    1
    3     1     4    2
    4     4     5    1
    5     4     6    1
    6     6     7    1
    7     6     8    1
    8     6     9    1
    9     9    10    1
   10     9    11    1
   11     9    12    1
   12    12    13    1
   13    12    14    1
   14    12    15    1
   15    15    16    1
   16    15    17    1
   17    15    18    1
   18    18    19    1
   19    18    20    2
@<TRIPOS>SUBSTRUCTURE
       1 MOL1            1 RESIDUE      1      MOL     
@<SCITEGIC>MOL_PROPERTY
VM2 Rank
SciTegic.value.IntegerValue
51

@<SCITEGIC>MOL_PROPERTY
Conf_Id
SciTegic.value.IntegerValue
149

@<SCITEGIC>MOL_PROPERTY
Probability
SciTegic.value.DoubleValue
0.07

@<SCITEGIC>MOL_PROPERTY
Sum Probability
SciTegic.value.DoubleValue
99.68

@<SCITEGIC>MOL_PROPERTY
Delta G
SciTegic.value.DoubleValue
3.139

@<SCITEGIC>MOL_PROPERTY
G
SciTegic.value.DoubleValue
-18.750

@<SCITEGIC>MOL_PROPERTY
E
SciTegic.value.DoubleValue
-34.410

@<SCITEGIC>MOL_PROPERTY
-TS
SciTegic.value.DoubleValue
15.659

@<SCITEGIC>MOL_PROPERTY
U+W
SciTegic.value.DoubleValue
-50.506

@<SCITEGIC>MOL_PROPERTY
U
SciTegic.value.DoubleValue
10.403

@<SCITEGIC>MOL_PROPERTY
W
SciTegic.value.DoubleValue
-60.909

@<SCITEGIC>MOL_PROPERTY
W(PB)
SciTegic.value.DoubleValue
-63.052

@<SCITEGIC>MOL_PROPERTY
W(SA)
SciTegic.value.DoubleValue
2.143

@<SCITEGIC>MOL_PROPERTY
Valence
SciTegic.value.DoubleValue
10.022

@<SCITEGIC>MOL_PROPERTY
Coulomb
SciTegic.value.DoubleValue
0.093

@<SCITEGIC>MOL_PROPERTY
VdW
SciTegic.value.DoubleValue
0.289

@<SCITEGIC>MOL_PROPERTY
VdW6
SciTegic.value.DoubleValue
-8.409

@<SCITEGIC>MOL_PROPERTY
VdW12
SciTegic.value.DoubleValue
8.698

@<SCITEGIC>MOL_PROPERTY
Bond
SciTegic.value.DoubleValue
0.179

@<SCITEGIC>MOL_PROPERTY
Angle
SciTegic.value.DoubleValue
2.939

@<SCITEGIC>MOL_PROPERTY
Pdih
SciTegic.value.DoubleValue
6.902

@<SCITEGIC>MOL_PROPERTY
Idih
SciTegic.value.DoubleValue
0.001

@<SCITEGIC>MOL_PROPERTY
Tether
SciTegic.value.DoubleValue
0.000

@<TRIPOS>MOLECULE
guest-s22_vm2.mol2 : vm2 ligand conformer 52
          20          19           1
SMALL
USER_CHARGES
 
@<TRIPOS>ATOM
       1    C1      20.452379   18.816447   18.902314 C.2        1 MOL1        -0.2535
       2    H1      20.141880   19.765341   18.467973 H          1 MOL1         0.0845
       3    H2      20.690480   18.005289   18.216403 H          1 MOL1         0.0845
       4    C2      20.536086   18.649050   20.224679 C.2        1 MOL1        -0.1324
       5    H3      20.851253   17.691835   20.638968 H          1 MOL1         0.0833
       6    C3      20.226721   19.730461   21.237776 C.3        1 MOL1        -0.1813
       7    H4      20.264145   20.714643   20.751772 H          1 MOL1         0.0753
       8    H5      21.001619   19.751311   22.014970 H          1 MOL1         0.0753
       9    C4      18.831203   19.554341   21.882925 C.3        1 MOL1        -0.1855
      10    H6      18.644817   20.396482   22.563389 H          1 MOL1         0.0755
      11    H7      18.066978   19.623676   21.096803 H          1 MOL1         0.0755
      12    C5      18.636277   18.222555   22.652625 C.3        1 MOL1        -0.1855
      13    H8      18.721935   17.379718   21.954066 H          1 MOL1         0.0755
      14    H9      17.610137   18.189351   23.043926 H          1 MOL1         0.0755
      15    C6      19.625444   18.010578   23.831099 C.3        1 MOL1        -0.1958
      16    H10     19.420371   17.045062   24.307891 H          1 MOL1         0.0753
      17    H11     20.657409   17.962735   23.465312 H          1 MOL1         0.0753
      18    C7      19.540180   19.080385   24.915897 C.2        1 MOL1         0.6174
      19    O1      20.452996   19.876902   25.012907 O.co2      1 MOL1        -0.6695
      20    O2      18.569715   19.077282   25.647776 O.co2      1 MOL1        -0.6695
@<TRIPOS>BOND
    1     1     2    1
    2     1     3    1
    3     1     4    2
    4     4     5    1
    5     4     6    1
    6     6     7    1
    7     6     8    1
    8     6     9    1
    9     9    10    1
   10     9    11    1
   11     9    12    1
   12    12    13    1
   13    12    14    1
   14    12    15    1
   15    15    16    1
   16    15    17    1
   17    15    18    1
   18    18    19    1
   19    18    20    2
@<TRIPOS>SUBSTRUCTURE
       1 MOL1            1 RESIDUE      1      MOL     
@<SCITEGIC>MOL_PROPERTY
VM2 Rank
SciTegic.value.IntegerValue
52

@<SCITEGIC>MOL_PROPERTY
Conf_Id
SciTegic.value.IntegerValue
476

@<SCITEGIC>MOL_PROPERTY
Probability
SciTegic.value.DoubleValue
0.07

@<SCITEGIC>MOL_PROPERTY
Sum Probability
SciTegic.value.DoubleValue
99.75

@<SCITEGIC>MOL_PROPERTY
Delta G
SciTegic.value.DoubleValue
3.152

@<SCITEGIC>MOL_PROPERTY
G
SciTegic.value.DoubleValue
-18.737

@<SCITEGIC>MOL_PROPERTY
E
SciTegic.value.DoubleValue
-34.396

@<SCITEGIC>MOL_PROPERTY
-TS
SciTegic.value.DoubleValue
15.659

@<SCITEGIC>MOL_PROPERTY
U+W
SciTegic.value.DoubleValue
-50.492

@<SCITEGIC>MOL_PROPERTY
U
SciTegic.value.DoubleValue
10.403

@<SCITEGIC>MOL_PROPERTY
W
SciTegic.value.DoubleValue
-60.895

@<SCITEGIC>MOL_PROPERTY
W(PB)
SciTegic.value.DoubleValue
-63.043

@<SCITEGIC>MOL_PROPERTY
W(SA)
SciTegic.value.DoubleValue
2.148

@<SCITEGIC>MOL_PROPERTY
Valence
SciTegic.value.DoubleValue
10.022

@<SCITEGIC>MOL_PROPERTY
Coulomb
SciTegic.value.DoubleValue
0.092

@<SCITEGIC>MOL_PROPERTY
VdW
SciTegic.value.DoubleValue
0.289

@<SCITEGIC>MOL_PROPERTY
VdW6
SciTegic.value.DoubleValue
-8.408

@<SCITEGIC>MOL_PROPERTY
VdW12
SciTegic.value.DoubleValue
8.697

@<SCITEGIC>MOL_PROPERTY
Bond
SciTegic.value.DoubleValue
0.179

@<SCITEGIC>MOL_PROPERTY
Angle
SciTegic.value.DoubleValue
2.939

@<SCITEGIC>MOL_PROPERTY
Pdih
SciTegic.value.DoubleValue
6.903

@<SCITEGIC>MOL_PROPERTY
Idih
SciTegic.value.DoubleValue
0.001

@<SCITEGIC>MOL_PROPERTY
Tether
SciTegic.value.DoubleValue
0.000

@<TRIPOS>MOLECULE
guest-s22_vm2.mol2 : vm2 ligand conformer 53
          20          19           1
SMALL
USER_CHARGES
 
@<TRIPOS>ATOM
       1    C1      19.878072   17.641419   19.751323 C.2        1 MOL1        -0.2535
       2    H1      19.320952   16.968257   20.400684 H          1 MOL1         0.0845
       3    H2      20.463789   17.194323   18.950049 H          1 MOL1         0.0845
       4    C2      19.849262   18.964829   19.929605 C.2        1 MOL1        -0.1324
       5    H3      20.415938   19.621047   19.269673 H          1 MOL1         0.0833
       6    C3      19.060966   19.658478   21.020263 C.3        1 MOL1        -0.1813
       7    H4      18.373661   18.956926   21.511094 H          1 MOL1         0.0753
       8    H5      18.428279   20.432654   20.566525 H          1 MOL1         0.0753
       9    C4      19.975946   20.325630   22.074987 C.3        1 MOL1        -0.1855
      10    H6      20.594316   21.085903   21.578749 H          1 MOL1         0.0755
      11    H7      19.351221   20.867052   22.798541 H          1 MOL1         0.0755
      12    C5      20.905074   19.343679   22.834007 C.3        1 MOL1        -0.1855
      13    H8      21.544578   19.919428   23.517101 H          1 MOL1         0.0755
      14    H9      21.582227   18.855741   22.120257 H          1 MOL1         0.0755
      15    C6      20.157490   18.254473   23.650630 C.3        1 MOL1        -0.1958
      16    H10     19.565076   17.614142   22.987449 H          1 MOL1         0.0753
      17    H11     20.889396   17.601332   24.139726 H          1 MOL1         0.0753
      18    C7      19.243536   18.809170   24.739300 C.2        1 MOL1         0.6174
      19    O1      19.759211   19.285295   25.731727 O.co2      1 MOL1        -0.6695
      20    O2      18.041444   18.735028   24.576159 O.co2      1 MOL1        -0.6695
@<TRIPOS>BOND
    1     1     2    1
    2     1     3    1
    3     1     4    2
    4     4     5    1
    5     4     6    1
    6     6     7    1
    7     6     8    1
    8     6     9    1
    9     9    10    1
   10     9    11    1
   11     9    12    1
   12    12    13    1
   13    12    14    1
   14    12    15    1
   15    15    16    1
   16    15    17    1
   17    15    18    1
   18    18    19    1
   19    18    20    2
@<TRIPOS>SUBSTRUCTURE
       1 MOL1            1 RESIDUE      1      MOL     
@<SCITEGIC>MOL_PROPERTY
VM2 Rank
SciTegic.value.IntegerValue
53

@<SCITEGIC>MOL_PROPERTY
Conf_Id
SciTegic.value.IntegerValue
575

@<SCITEGIC>MOL_PROPERTY
Probability
SciTegic.value.DoubleValue
0.05

@<SCITEGIC>MOL_PROPERTY
Sum Probability
SciTegic.value.DoubleValue
99.80

@<SCITEGIC>MOL_PROPERTY
Delta G
SciTegic.value.DoubleValue
3.318

@<SCITEGIC>MOL_PROPERTY
G
SciTegic.value.DoubleValue
-18.571

@<SCITEGIC>MOL_PROPERTY
E
SciTegic.value.DoubleValue
-34.354

@<SCITEGIC>MOL_PROPERTY
-TS
SciTegic.value.DoubleValue
15.782

@<SCITEGIC>MOL_PROPERTY
U+W
SciTegic.value.DoubleValue
-50.450

@<SCITEGIC>MOL_PROPERTY
U
SciTegic.value.DoubleValue
10.910

@<SCITEGIC>MOL_PROPERTY
W
SciTegic.value.DoubleValue
-61.360

@<SCITEGIC>MOL_PROPERTY
W(PB)
SciTegic.value.DoubleValue
-63.493

@<SCITEGIC>MOL_PROPERTY
W(SA)
SciTegic.value.DoubleValue
2.133

@<SCITEGIC>MOL_PROPERTY
Valence
SciTegic.value.DoubleValue
9.972

@<SCITEGIC>MOL_PROPERTY
Coulomb
SciTegic.value.DoubleValue
0.850

@<SCITEGIC>MOL_PROPERTY
VdW
SciTegic.value.DoubleValue
0.088

@<SCITEGIC>MOL_PROPERTY
VdW6
SciTegic.value.DoubleValue
-8.716

@<SCITEGIC>MOL_PROPERTY
VdW12
SciTegic.value.DoubleValue
8.804

@<SCITEGIC>MOL_PROPERTY
Bond
SciTegic.value.DoubleValue
0.178

@<SCITEGIC>MOL_PROPERTY
Angle
SciTegic.value.DoubleValue
2.916

@<SCITEGIC>MOL_PROPERTY
Pdih
SciTegic.value.DoubleValue
6.877

@<SCITEGIC>MOL_PROPERTY
Idih
SciTegic.value.DoubleValue
0.001

@<SCITEGIC>MOL_PROPERTY
Tether
SciTegic.value.DoubleValue
0.000

@<TRIPOS>MOLECULE
guest-s22_vm2.mol2 : vm2 ligand conformer 54
          20          19           1
SMALL
USER_CHARGES
 
@<TRIPOS>ATOM
       1    C1      20.559238   17.988590   19.171019 C.2        1 MOL1        -0.2535
       2    H1      21.596014   17.934164   19.499188 H          1 MOL1         0.0845
       3    H2      20.350411   17.752022   18.129070 H          1 MOL1         0.0845
       4    C2      19.579308   18.333979   20.010151 C.2        1 MOL1        -0.1324
       5    H3      18.547914   18.383189   19.661754 H          1 MOL1         0.0833
       6    C3      19.792421   18.674638   21.468400 C.3        1 MOL1        -0.1813
       7    H4      20.790949   18.351727   21.793111 H          1 MOL1         0.0753
       8    H5      19.066052   18.119772   22.074660 H          1 MOL1         0.0753
       9    C4      19.635226   20.191830   21.712340 C.3        1 MOL1        -0.1855
      10    H6      20.267008   20.727908   20.990620 H          1 MOL1         0.0755
      11    H7      18.600725   20.494374   21.500015 H          1 MOL1         0.0755
      12    C5      20.033084   20.649545   23.137701 C.3        1 MOL1        -0.1855
      13    H8      20.019811   21.747755   23.152406 H          1 MOL1         0.0755
      14    H9      21.070651   20.357272   23.351392 H          1 MOL1         0.0755
      15    C6      19.095971   20.143001   24.269959 C.3        1 MOL1        -0.1958
      16    H10     19.237242   20.770404   25.157595 H          1 MOL1         0.0753
      17    H11     18.046252   20.252783   23.971917 H          1 MOL1         0.0753
      18    C7      19.336505   18.703039   24.718869 C.2        1 MOL1         0.6174
      19    O1      20.437128   18.406562   25.141134 O.co2      1 MOL1        -0.6695
      20    O2      18.402120   17.926816   24.678426 O.co2      1 MOL1        -0.6695
@<TRIPOS>BOND
    1     1     2    1
    2     1     3    1
    3     1     4    2
    4     4     5    1
    5     4     6    1
    6     6     7    1
    7     6     8    1
    8     6     9    1
    9     9    10    1
   10     9    11    1
   11     9    12    1
   12    12    13    1
   13    12    14    1
   14    12    15    1
   15    15    16    1
   16    15    17    1
   17    15    18    1
   18    18    19    1
   19    18    20    2
@<TRIPOS>SUBSTRUCTURE
       1 MOL1            1 RESIDUE      1      MOL     
@<SCITEGIC>MOL_PROPERTY
VM2 Rank
SciTegic.value.IntegerValue
54

@<SCITEGIC>MOL_PROPERTY
Conf_Id
SciTegic.value.IntegerValue
155

@<SCITEGIC>MOL_PROPERTY
Probability
SciTegic.value.DoubleValue
0.03

@<SCITEGIC>MOL_PROPERTY
Sum Probability
SciTegic.value.DoubleValue
99.83

@<SCITEGIC>MOL_PROPERTY
Delta G
SciTegic.value.DoubleValue
3.643

@<SCITEGIC>MOL_PROPERTY
G
SciTegic.value.DoubleValue
-18.246

@<SCITEGIC>MOL_PROPERTY
E
SciTegic.value.DoubleValue
-33.770

@<SCITEGIC>MOL_PROPERTY
-TS
SciTegic.value.DoubleValue
15.524

@<SCITEGIC>MOL_PROPERTY
U+W
SciTegic.value.DoubleValue
-49.866

@<SCITEGIC>MOL_PROPERTY
U
SciTegic.value.DoubleValue
11.756

@<SCITEGIC>MOL_PROPERTY
W
SciTegic.value.DoubleValue
-61.622

@<SCITEGIC>MOL_PROPERTY
W(PB)
SciTegic.value.DoubleValue
-63.782

@<SCITEGIC>MOL_PROPERTY
W(SA)
SciTegic.value.DoubleValue
2.160

@<SCITEGIC>MOL_PROPERTY
Valence
SciTegic.value.DoubleValue
10.982

@<SCITEGIC>MOL_PROPERTY
Coulomb
SciTegic.value.DoubleValue
0.363

@<SCITEGIC>MOL_PROPERTY
VdW
SciTegic.value.DoubleValue
0.411

@<SCITEGIC>MOL_PROPERTY
VdW6
SciTegic.value.DoubleValue
-8.036

@<SCITEGIC>MOL_PROPERTY
VdW12
SciTegic.value.DoubleValue
8.447

@<SCITEGIC>MOL_PROPERTY
Bond
SciTegic.value.DoubleValue
0.168

@<SCITEGIC>MOL_PROPERTY
Angle
SciTegic.value.DoubleValue
3.178

@<SCITEGIC>MOL_PROPERTY
Pdih
SciTegic.value.DoubleValue
7.632

@<SCITEGIC>MOL_PROPERTY
Idih
SciTegic.value.DoubleValue
0.005

@<SCITEGIC>MOL_PROPERTY
Tether
SciTegic.value.DoubleValue
0.000

@<TRIPOS>MOLECULE
guest-s22_vm2.mol2 : vm2 ligand conformer 55
          20          19           1
SMALL
USER_CHARGES
 
@<TRIPOS>ATOM
       1    C1      20.130948   19.886966   19.054401 C.2        1 MOL1        -0.2535
       2    H1      19.868755   19.888038   17.997763 H          1 MOL1         0.0845
       3    H2      21.035328   20.418130   19.346848 H          1 MOL1         0.0845
       4    C2      19.371447   19.255501   19.953351 C.2        1 MOL1        -0.1324
       5    H3      18.470289   18.728877   19.640052 H          1 MOL1         0.0833
       6    C3      19.671074   19.211406   21.435324 C.3        1 MOL1        -0.1813
       7    H4      18.761281   19.468366   21.991466 H          1 MOL1         0.0753
       8    H5      20.426242   19.966114   21.693975 H          1 MOL1         0.0753
       9    C4      20.172057   17.812860   21.858623 C.3        1 MOL1        -0.1855
      10    H6      19.372625   17.074142   21.710261 H          1 MOL1         0.0755
      11    H7      20.991321   17.518699   21.188038 H          1 MOL1         0.0755
      12    C5      20.689740   17.739163   23.316713 C.3        1 MOL1        -0.1855
      13    H8      21.496440   18.470008   23.467489 H          1 MOL1         0.0755
      14    H9      21.147255   16.750905   23.459829 H          1 MOL1         0.0755
      15    C6      19.596506   17.924325   24.406358 C.3        1 MOL1        -0.1958
      16    H10     18.702914   17.342100   24.150822 H          1 MOL1         0.0753
      17    H11     19.969134   17.525933   25.357108 H          1 MOL1         0.0753
      18    C7      19.186014   19.370254   24.677738 C.2        1 MOL1         0.6174
      19    O1      20.042409   20.155964   25.033863 O.co2      1 MOL1        -0.6695
      20    O2      18.010806   19.661561   24.571628 O.co2      1 MOL1        -0.6695
@<TRIPOS>BOND
    1     1     2    1
    2     1     3    1
    3     1     4    2
    4     4     5    1
    5     4     6    1
    6     6     7    1
    7     6     8    1
    8     6     9    1
    9     9    10    1
   10     9    11    1
   11     9    12    1
   12    12    13    1
   13    12    14    1
   14    12    15    1
   15    15    16    1
   16    15    17    1
   17    15    18    1
   18    18    19    1
   19    18    20    2
@<TRIPOS>SUBSTRUCTURE
       1 MOL1            1 RESIDUE      1      MOL     
@<SCITEGIC>MOL_PROPERTY
VM2 Rank
SciTegic.value.IntegerValue
55

@<SCITEGIC>MOL_PROPERTY
Conf_Id
SciTegic.value.IntegerValue
136

@<SCITEGIC>MOL_PROPERTY
Probability
SciTegic.value.DoubleValue
0.03

@<SCITEGIC>MOL_PROPERTY
Sum Probability
SciTegic.value.DoubleValue
99.86

@<SCITEGIC>MOL_PROPERTY
Delta G
SciTegic.value.DoubleValue
3.700

@<SCITEGIC>MOL_PROPERTY
G
SciTegic.value.DoubleValue
-18.189

@<SCITEGIC>MOL_PROPERTY
E
SciTegic.value.DoubleValue
-33.713

@<SCITEGIC>MOL_PROPERTY
-TS
SciTegic.value.DoubleValue
15.524

@<SCITEGIC>MOL_PROPERTY
U+W
SciTegic.value.DoubleValue
-49.809

@<SCITEGIC>MOL_PROPERTY
U
SciTegic.value.DoubleValue
11.755

@<SCITEGIC>MOL_PROPERTY
W
SciTegic.value.DoubleValue
-61.564

@<SCITEGIC>MOL_PROPERTY
W(PB)
SciTegic.value.DoubleValue
-63.745

@<SCITEGIC>MOL_PROPERTY
W(SA)
SciTegic.value.DoubleValue
2.181

@<SCITEGIC>MOL_PROPERTY
Valence
SciTegic.value.DoubleValue
10.983

@<SCITEGIC>MOL_PROPERTY
Coulomb
SciTegic.value.DoubleValue
0.362

@<SCITEGIC>MOL_PROPERTY
VdW
SciTegic.value.DoubleValue
0.411

@<SCITEGIC>MOL_PROPERTY
VdW6
SciTegic.value.DoubleValue
-8.036

@<SCITEGIC>MOL_PROPERTY
VdW12
SciTegic.value.DoubleValue
8.446

@<SCITEGIC>MOL_PROPERTY
Bond
SciTegic.value.DoubleValue
0.168

@<SCITEGIC>MOL_PROPERTY
Angle
SciTegic.value.DoubleValue
3.178

@<SCITEGIC>MOL_PROPERTY
Pdih
SciTegic.value.DoubleValue
7.632

@<SCITEGIC>MOL_PROPERTY
Idih
SciTegic.value.DoubleValue
0.005

@<SCITEGIC>MOL_PROPERTY
Tether
SciTegic.value.DoubleValue
0.000

@<TRIPOS>MOLECULE
guest-s22_vm2.mol2 : vm2 ligand conformer 56
          20          19           1
SMALL
USER_CHARGES
 
@<TRIPOS>ATOM
       1    C1      19.997057   18.411141   19.067778 C.2        1 MOL1        -0.2535
       2    H1      19.113562   19.043494   19.012270 H          1 MOL1         0.0845
       3    H2      20.327288   17.945850   18.140629 H          1 MOL1         0.0845
       4    C2      20.657393   18.198870   20.211838 C.2        1 MOL1        -0.1324
       5    H3      21.534822   17.552626   20.205205 H          1 MOL1         0.0833
       6    C3      20.320498   18.776704   21.576388 C.3        1 MOL1        -0.1813
       7    H4      21.225425   19.234159   21.998260 H          1 MOL1         0.0753
       8    H5      20.064884   17.947548   22.247005 H          1 MOL1         0.0753
       9    C4      19.180569   19.824505   21.577935 C.3        1 MOL1        -0.1855
      10    H6      19.406289   20.591036   20.824048 H          1 MOL1         0.0755
      11    H7      18.239660   19.348451   21.270080 H          1 MOL1         0.0755
      12    C5      18.979797   20.539344   22.937713 C.3        1 MOL1        -0.1855
      13    H8      18.253379   21.348990   22.785198 H          1 MOL1         0.0755
      14    H9      19.914013   21.027297   23.248755 H          1 MOL1         0.0755
      15    C6      18.450127   19.629717   24.081933 C.3        1 MOL1        -0.1958
      16    H10     18.013633   20.259798   24.865479 H          1 MOL1         0.0753
      17    H11     17.643682   18.984835   23.712375 H          1 MOL1         0.0753
      18    C7      19.504982   18.762806   24.766642 C.2        1 MOL1         0.6174
      19    O1      20.458781   19.312973   25.281589 O.co2      1 MOL1        -0.6695
      20    O2      19.321798   17.561941   24.806183 O.co2      1 MOL1        -0.6695
@<TRIPOS>BOND
    1     1     2    1
    2     1     3    1
    3     1     4    2
    4     4     5    1
    5     4     6    1
    6     6     7    1
    7     6     8    1
    8     6     9    1
    9     9    10    1
   10     9    11    1
   11     9    12    1
   12    12    13    1
   13    12    14    1
   14    12    15    1
   15    15    16    1
   16    15    17    1
   17    15    18    1
   18    18    19    1
   19    18    20    2
@<TRIPOS>SUBSTRUCTURE
       1 MOL1            1 RESIDUE      1      MOL     
@<SCITEGIC>MOL_PROPERTY
VM2 Rank
SciTegic.value.IntegerValue
56

@<SCITEGIC>MOL_PROPERTY
Conf_Id
SciTegic.value.IntegerValue
636

@<SCITEGIC>MOL_PROPERTY
Probability
SciTegic.value.DoubleValue
0.03

@<SCITEGIC>MOL_PROPERTY
Sum Probability
SciTegic.value.DoubleValue
99.88

@<SCITEGIC>MOL_PROPERTY
Delta G
SciTegic.value.DoubleValue
3.740

@<SCITEGIC>MOL_PROPERTY
G
SciTegic.value.DoubleValue
-18.149

@<SCITEGIC>MOL_PROPERTY
E
SciTegic.value.DoubleValue
-34.012

@<SCITEGIC>MOL_PROPERTY
-TS
SciTegic.value.DoubleValue
15.863

@<SCITEGIC>MOL_PROPERTY
U+W
SciTegic.value.DoubleValue
-50.108

@<SCITEGIC>MOL_PROPERTY
U
SciTegic.value.DoubleValue
11.478

@<SCITEGIC>MOL_PROPERTY
W
SciTegic.value.DoubleValue
-61.586

@<SCITEGIC>MOL_PROPERTY
W(PB)
SciTegic.value.DoubleValue
-63.744

@<SCITEGIC>MOL_PROPERTY
W(SA)
SciTegic.value.DoubleValue
2.158

@<SCITEGIC>MOL_PROPERTY
Valence
SciTegic.value.DoubleValue
9.963

@<SCITEGIC>MOL_PROPERTY
Coulomb
SciTegic.value.DoubleValue
0.355

@<SCITEGIC>MOL_PROPERTY
VdW
SciTegic.value.DoubleValue
1.159

@<SCITEGIC>MOL_PROPERTY
VdW6
SciTegic.value.DoubleValue
-8.703

@<SCITEGIC>MOL_PROPERTY
VdW12
SciTegic.value.DoubleValue
9.863

@<SCITEGIC>MOL_PROPERTY
Bond
SciTegic.value.DoubleValue
0.227

@<SCITEGIC>MOL_PROPERTY
Angle
SciTegic.value.DoubleValue
3.805

@<SCITEGIC>MOL_PROPERTY
Pdih
SciTegic.value.DoubleValue
5.927

@<SCITEGIC>MOL_PROPERTY
Idih
SciTegic.value.DoubleValue
0.005

@<SCITEGIC>MOL_PROPERTY
Tether
SciTegic.value.DoubleValue
0.000

@<TRIPOS>MOLECULE
guest-s22_vm2.mol2 : vm2 ligand conformer 57
          20          19           1
SMALL
USER_CHARGES
 
@<TRIPOS>ATOM
       1    C1      19.659406   18.785382   19.010271 C.2        1 MOL1        -0.2535
       2    H1      20.188095   17.852731   19.195108 H          1 MOL1         0.0845
       3    H2      19.380017   18.995810   17.979341 H          1 MOL1         0.0845
       4    C2      19.353769   19.643819   19.989885 C.2        1 MOL1        -0.1324
       5    H3      18.820117   20.561352   19.743095 H          1 MOL1         0.0833
       6    C3      19.676947   19.490023   21.466803 C.3        1 MOL1        -0.1813
       7    H4      18.732448   19.424411   22.020141 H          1 MOL1         0.0753
       8    H5      20.165743   20.408710   21.817841 H          1 MOL1         0.0753
       9    C4      20.575583   18.278304   21.815394 C.3        1 MOL1        -0.1855
      10    H6      20.047240   17.344986   21.577738 H          1 MOL1         0.0755
      11    H7      21.467756   18.306190   21.174990 H          1 MOL1         0.0755
      12    C5      21.049491   18.245260   23.290055 C.3        1 MOL1        -0.1855
      13    H8      21.588319   19.171465   23.533797 H          1 MOL1         0.0755
      14    H9      21.784635   17.434857   23.386391 H          1 MOL1         0.0755
      15    C6      19.923240   17.996883   24.332686 C.3        1 MOL1        -0.1958
      16    H10     19.253712   17.200241   23.986424 H          1 MOL1         0.0753
      17    H11     20.373944   17.643544   25.267294 H          1 MOL1         0.0753
      18    C7      19.089082   19.223846   24.695758 C.2        1 MOL1         0.6174
      19    O1      19.660476   20.197786   25.145799 O.co2      1 MOL1        -0.6695
      20    O2      17.883005   19.156699   24.561350 O.co2      1 MOL1        -0.6695
@<TRIPOS>BOND
    1     1     2    1
    2     1     3    1
    3     1     4    2
    4     4     5    1
    5     4     6    1
    6     6     7    1
    7     6     8    1
    8     6     9    1
    9     9    10    1
   10     9    11    1
   11     9    12    1
   12    12    13    1
   13    12    14    1
   14    12    15    1
   15    15    16    1
   16    15    17    1
   17    15    18    1
   18    18    19    1
   19    18    20    2
@<TRIPOS>SUBSTRUCTURE
       1 MOL1            1 RESIDUE      1      MOL     
@<SCITEGIC>MOL_PROPERTY
VM2 Rank
SciTegic.value.IntegerValue
57

@<SCITEGIC>MOL_PROPERTY
Conf_Id
SciTegic.value.IntegerValue
426

@<SCITEGIC>MOL_PROPERTY
Probability
SciTegic.value.DoubleValue
0.03

@<SCITEGIC>MOL_PROPERTY
Sum Probability
SciTegic.value.DoubleValue
99.91

@<SCITEGIC>MOL_PROPERTY
Delta G
SciTegic.value.DoubleValue
3.748

@<SCITEGIC>MOL_PROPERTY
G
SciTegic.value.DoubleValue
-18.141

@<SCITEGIC>MOL_PROPERTY
E
SciTegic.value.DoubleValue
-34.005

@<SCITEGIC>MOL_PROPERTY
-TS
SciTegic.value.DoubleValue
15.864

@<SCITEGIC>MOL_PROPERTY
U+W
SciTegic.value.DoubleValue
-50.101

@<SCITEGIC>MOL_PROPERTY
U
SciTegic.value.DoubleValue
11.477

@<SCITEGIC>MOL_PROPERTY
W
SciTegic.value.DoubleValue
-61.578

@<SCITEGIC>MOL_PROPERTY
W(PB)
SciTegic.value.DoubleValue
-63.708

@<SCITEGIC>MOL_PROPERTY
W(SA)
SciTegic.value.DoubleValue
2.130

@<SCITEGIC>MOL_PROPERTY
Valence
SciTegic.value.DoubleValue
9.963

@<SCITEGIC>MOL_PROPERTY
Coulomb
SciTegic.value.DoubleValue
0.354

@<SCITEGIC>MOL_PROPERTY
VdW
SciTegic.value.DoubleValue
1.159

@<SCITEGIC>MOL_PROPERTY
VdW6
SciTegic.value.DoubleValue
-8.703

@<SCITEGIC>MOL_PROPERTY
VdW12
SciTegic.value.DoubleValue
9.862

@<SCITEGIC>MOL_PROPERTY
Bond
SciTegic.value.DoubleValue
0.227

@<SCITEGIC>MOL_PROPERTY
Angle
SciTegic.value.DoubleValue
3.805

@<SCITEGIC>MOL_PROPERTY
Pdih
SciTegic.value.DoubleValue
5.927

@<SCITEGIC>MOL_PROPERTY
Idih
SciTegic.value.DoubleValue
0.004

@<SCITEGIC>MOL_PROPERTY
Tether
SciTegic.value.DoubleValue
0.000

@<TRIPOS>MOLECULE
guest-s22_vm2.mol2 : vm2 ligand conformer 58
          20          19           1
SMALL
USER_CHARGES
 
@<TRIPOS>ATOM
       1    C1      18.744680   18.677681   19.264096 C.2        1 MOL1        -0.2535
       2    H1      18.703768   18.670071   18.176215 H          1 MOL1         0.0845
       3    H2      17.996166   18.094247   19.797973 H          1 MOL1         0.0845
       4    C2      19.679447   19.375077   19.914921 C.2        1 MOL1        -0.1324
       5    H3      20.419832   19.952675   19.361940 H          1 MOL1         0.0833
       6    C3      19.797361   19.434428   21.421882 C.3        1 MOL1        -0.1813
       7    H4      18.872133   19.063963   21.880565 H          1 MOL1         0.0753
       8    H5      19.914513   20.478702   21.741044 H          1 MOL1         0.0753
       9    C4      20.999249   18.600459   21.918053 C.3        1 MOL1        -0.1855
      10    H6      20.826215   17.538798   21.694614 H          1 MOL1         0.0755
      11    H7      21.889863   18.893933   21.345507 H          1 MOL1         0.0755
      12    C5      21.313705   18.774914   23.424771 C.3        1 MOL1        -0.1855
      13    H8      21.496680   19.834524   23.651382 H          1 MOL1         0.0755
      14    H9      22.258650   18.254595   23.631673 H          1 MOL1         0.0755
      15    C6      20.232418   18.206281   24.386250 C.3        1 MOL1        -0.1958
      16    H10     19.899526   17.219498   24.042365 H          1 MOL1         0.0753
      17    H11     20.677538   18.059474   25.377101 H          1 MOL1         0.0753
      18    C7      19.009835   19.098352   24.592532 C.2        1 MOL1         0.6174
      19    O1      19.181723   20.223051   25.020484 O.co2      1 MOL1        -0.6695
      20    O2      17.912582   18.627759   24.365012 O.co2      1 MOL1        -0.6695
@<TRIPOS>BOND
    1     1     2    1
    2     1     3    1
    3     1     4    2
    4     4     5    1
    5     4     6    1
    6     6     7    1
    7     6     8    1
    8     6     9    1
    9     9    10    1
   10     9    11    1
   11     9    12    1
   12    12    13    1
   13    12    14    1
   14    12    15    1
   15    15    16    1
   16    15    17    1
   17    15    18    1
   18    18    19    1
   19    18    20    2
@<TRIPOS>SUBSTRUCTURE
       1 MOL1            1 RESIDUE      1      MOL     
@<SCITEGIC>MOL_PROPERTY
VM2 Rank
SciTegic.value.IntegerValue
58

@<SCITEGIC>MOL_PROPERTY
Conf_Id
SciTegic.value.IntegerValue
111

@<SCITEGIC>MOL_PROPERTY
Probability
SciTegic.value.DoubleValue
0.03

@<SCITEGIC>MOL_PROPERTY
Sum Probability
SciTegic.value.DoubleValue
99.93

@<SCITEGIC>MOL_PROPERTY
Delta G
SciTegic.value.DoubleValue
3.749

@<SCITEGIC>MOL_PROPERTY
G
SciTegic.value.DoubleValue
-18.140

@<SCITEGIC>MOL_PROPERTY
E
SciTegic.value.DoubleValue
-33.654

@<SCITEGIC>MOL_PROPERTY
-TS
SciTegic.value.DoubleValue
15.514

@<SCITEGIC>MOL_PROPERTY
U+W
SciTegic.value.DoubleValue
-49.750

@<SCITEGIC>MOL_PROPERTY
U
SciTegic.value.DoubleValue
12.063

@<SCITEGIC>MOL_PROPERTY
W
SciTegic.value.DoubleValue
-61.813

@<SCITEGIC>MOL_PROPERTY
W(PB)
SciTegic.value.DoubleValue
-64.015

@<SCITEGIC>MOL_PROPERTY
W(SA)
SciTegic.value.DoubleValue
2.202

@<SCITEGIC>MOL_PROPERTY
Valence
SciTegic.value.DoubleValue
10.981

@<SCITEGIC>MOL_PROPERTY
Coulomb
SciTegic.value.DoubleValue
0.680

@<SCITEGIC>MOL_PROPERTY
VdW
SciTegic.value.DoubleValue
0.402

@<SCITEGIC>MOL_PROPERTY
VdW6
SciTegic.value.DoubleValue
-8.075

@<SCITEGIC>MOL_PROPERTY
VdW12
SciTegic.value.DoubleValue
8.477

@<SCITEGIC>MOL_PROPERTY
Bond
SciTegic.value.DoubleValue
0.169

@<SCITEGIC>MOL_PROPERTY
Angle
SciTegic.value.DoubleValue
3.169

@<SCITEGIC>MOL_PROPERTY
Pdih
SciTegic.value.DoubleValue
7.638

@<SCITEGIC>MOL_PROPERTY
Idih
SciTegic.value.DoubleValue
0.005

@<SCITEGIC>MOL_PROPERTY
Tether
SciTegic.value.DoubleValue
0.000

@<TRIPOS>MOLECULE
guest-s22_vm2.mol2 : vm2 ligand conformer 59
          20          19           1
SMALL
USER_CHARGES
 
@<TRIPOS>ATOM
       1    C1      20.212489   17.570843   19.479466 C.2        1 MOL1        -0.2535
       2    H1      19.754134   16.768873   20.056047 H          1 MOL1         0.0845
       3    H2      20.416170   17.378558   18.427443 H          1 MOL1         0.0845
       4    C2      20.512681   18.746719   20.037072 C.2        1 MOL1        -0.1324
       5    H3      20.971021   19.536699   19.442571 H          1 MOL1         0.0833
       6    C3      20.260912   19.085095   21.489816 C.3        1 MOL1        -0.1813
       7    H4      21.162292   19.538232   21.923727 H          1 MOL1         0.0753
       8    H5      20.063766   18.165849   22.055324 H          1 MOL1         0.0753
       9    C4      19.068471   20.056278   21.635129 C.3        1 MOL1        -0.1855
      10    H6      19.222564   20.904954   20.954591 H          1 MOL1         0.0755
      11    H7      18.147384   19.558554   21.302169 H          1 MOL1         0.0755
      12    C5      18.875177   20.613718   23.067406 C.3        1 MOL1        -0.1855
      13    H8      18.099948   21.390530   23.022198 H          1 MOL1         0.0755
      14    H9      19.791242   21.120548   23.401407 H          1 MOL1         0.0755
      15    C6      18.437372   19.559909   24.123243 C.3        1 MOL1        -0.1958
      16    H10     18.000821   20.078044   24.984885 H          1 MOL1         0.0753
      17    H11     17.650589   18.915386   23.712905 H          1 MOL1         0.0753
      18    C7      19.560566   18.683002   24.673269 C.2        1 MOL1         0.6174
      19    O1      20.504327   19.225772   25.213966 O.co2      1 MOL1        -0.6695
      20    O2      19.439005   17.476665   24.588632 O.co2      1 MOL1        -0.6695
@<TRIPOS>BOND
    1     1     2    1
    2     1     3    1
    3     1     4    2
    4     4     5    1
    5     4     6    1
    6     6     7    1
    7     6     8    1
    8     6     9    1
    9     9    10    1
   10     9    11    1
   11     9    12    1
   12    12    13    1
   13    12    14    1
   14    12    15    1
   15    15    16    1
   16    15    17    1
   17    15    18    1
   18    18    19    1
   19    18    20    2
@<TRIPOS>SUBSTRUCTURE
       1 MOL1            1 RESIDUE      1      MOL     
@<SCITEGIC>MOL_PROPERTY
VM2 Rank
SciTegic.value.IntegerValue
59

@<SCITEGIC>MOL_PROPERTY
Conf_Id
SciTegic.value.IntegerValue
566

@<SCITEGIC>MOL_PROPERTY
Probability
SciTegic.value.DoubleValue
0.03

@<SCITEGIC>MOL_PROPERTY
Sum Probability
SciTegic.value.DoubleValue
99.96

@<SCITEGIC>MOL_PROPERTY
Delta G
SciTegic.value.DoubleValue
3.756

@<SCITEGIC>MOL_PROPERTY
G
SciTegic.value.DoubleValue
-18.134

@<SCITEGIC>MOL_PROPERTY
E
SciTegic.value.DoubleValue
-33.648

@<SCITEGIC>MOL_PROPERTY
-TS
SciTegic.value.DoubleValue
15.515

@<SCITEGIC>MOL_PROPERTY
U+W
SciTegic.value.DoubleValue
-49.745

@<SCITEGIC>MOL_PROPERTY
U
SciTegic.value.DoubleValue
12.064

@<SCITEGIC>MOL_PROPERTY
W
SciTegic.value.DoubleValue
-61.809

@<SCITEGIC>MOL_PROPERTY
W(PB)
SciTegic.value.DoubleValue
-63.984

@<SCITEGIC>MOL_PROPERTY
W(SA)
SciTegic.value.DoubleValue
2.176

@<SCITEGIC>MOL_PROPERTY
Valence
SciTegic.value.DoubleValue
10.980

@<SCITEGIC>MOL_PROPERTY
Coulomb
SciTegic.value.DoubleValue
0.682

@<SCITEGIC>MOL_PROPERTY
VdW
SciTegic.value.DoubleValue
0.402

@<SCITEGIC>MOL_PROPERTY
VdW6
SciTegic.value.DoubleValue
-8.075

@<SCITEGIC>MOL_PROPERTY
VdW12
SciTegic.value.DoubleValue
8.477

@<SCITEGIC>MOL_PROPERTY
Bond
SciTegic.value.DoubleValue
0.169

@<SCITEGIC>MOL_PROPERTY
Angle
SciTegic.value.DoubleValue
3.169

@<SCITEGIC>MOL_PROPERTY
Pdih
SciTegic.value.DoubleValue
7.637

@<SCITEGIC>MOL_PROPERTY
Idih
SciTegic.value.DoubleValue
0.005

@<SCITEGIC>MOL_PROPERTY
Tether
SciTegic.value.DoubleValue
0.000

@<TRIPOS>MOLECULE
guest-s22_vm2.mol2 : vm2 ligand conformer 60
          20          19           1
SMALL
USER_CHARGES
 
@<TRIPOS>ATOM
       1    C1      19.597237   18.611047   19.262433 C.2        1 MOL1        -0.2535
       2    H1      19.050285   18.752812   18.332018 H          1 MOL1         0.0845
       3    H2      19.831296   17.587455   19.546642 H          1 MOL1         0.0845
       4    C2      19.963708   19.658700   20.008607 C.2        1 MOL1        -0.1324
       5    H3      19.706413   20.664170   19.676749 H          1 MOL1         0.0833
       6    C3      20.721204   19.607401   21.325214 C.3        1 MOL1        -0.1813
       7    H4      20.393788   20.442008   21.958311 H          1 MOL1         0.0753
       8    H5      21.782861   19.806169   21.128298 H          1 MOL1         0.0753
       9    C4      20.590302   18.288484   22.130875 C.3        1 MOL1        -0.1855
      10    H6      20.987622   17.456067   21.535441 H          1 MOL1         0.0755
      11    H7      21.238463   18.353632   23.015456 H          1 MOL1         0.0755
      12    C5      19.148159   17.947773   22.590222 C.3        1 MOL1        -0.1855
      13    H8      19.164878   16.981759   23.113248 H          1 MOL1         0.0755
      14    H9      18.504463   17.807181   21.712472 H          1 MOL1         0.0755
      15    C6      18.502112   19.007379   23.524132 C.3        1 MOL1        -0.1958
      16    H10     18.394760   19.965847   23.003731 H          1 MOL1         0.0753
      17    H11     17.488973   18.685362   23.791379 H          1 MOL1         0.0753
      18    C7      19.263408   19.239101   24.826116 C.2        1 MOL1         0.6174
      19    O1      19.866719   20.285282   24.962790 O.co2      1 MOL1        -0.6695
      20    O2      19.218151   18.372834   25.677610 O.co2      1 MOL1        -0.6695
@<TRIPOS>BOND
    1     1     2    1
    2     1     3    1
    3     1     4    2
    4     4     5    1
    5     4     6    1
    6     6     7    1
    7     6     8    1
    8     6     9    1
    9     9    10    1
   10     9    11    1
   11     9    12    1
   12    12    13    1
   13    12    14    1
   14    12    15    1
   15    15    16    1
   16    15    17    1
   17    15    18    1
   18    18    19    1
   19    18    20    2
@<TRIPOS>SUBSTRUCTURE
       1 MOL1            1 RESIDUE      1      MOL     
@<SCITEGIC>MOL_PROPERTY
VM2 Rank
SciTegic.value.IntegerValue
60

@<SCITEGIC>MOL_PROPERTY
Conf_Id
SciTegic.value.IntegerValue
151

@<SCITEGIC>MOL_PROPERTY
Probability
SciTegic.value.DoubleValue
0.02

@<SCITEGIC>MOL_PROPERTY
Sum Probability
SciTegic.value.DoubleValue
99.98

@<SCITEGIC>MOL_PROPERTY
Delta G
SciTegic.value.DoubleValue
3.817

@<SCITEGIC>MOL_PROPERTY
G
SciTegic.value.DoubleValue
-18.072

@<SCITEGIC>MOL_PROPERTY
E
SciTegic.value.DoubleValue
-33.930

@<SCITEGIC>MOL_PROPERTY
-TS
SciTegic.value.DoubleValue
15.858

@<SCITEGIC>MOL_PROPERTY
U+W
SciTegic.value.DoubleValue
-50.026

@<SCITEGIC>MOL_PROPERTY
U
SciTegic.value.DoubleValue
11.092

@<SCITEGIC>MOL_PROPERTY
W
SciTegic.value.DoubleValue
-61.118

@<SCITEGIC>MOL_PROPERTY
W(PB)
SciTegic.value.DoubleValue
-63.251

@<SCITEGIC>MOL_PROPERTY
W(SA)
SciTegic.value.DoubleValue
2.133

@<SCITEGIC>MOL_PROPERTY
Valence
SciTegic.value.DoubleValue
9.664

@<SCITEGIC>MOL_PROPERTY
Coulomb
SciTegic.value.DoubleValue
0.659

@<SCITEGIC>MOL_PROPERTY
VdW
SciTegic.value.DoubleValue
0.768

@<SCITEGIC>MOL_PROPERTY
VdW6
SciTegic.value.DoubleValue
-9.171

@<SCITEGIC>MOL_PROPERTY
VdW12
SciTegic.value.DoubleValue
9.940

@<SCITEGIC>MOL_PROPERTY
Bond
SciTegic.value.DoubleValue
0.244

@<SCITEGIC>MOL_PROPERTY
Angle
SciTegic.value.DoubleValue
3.658

@<SCITEGIC>MOL_PROPERTY
Pdih
SciTegic.value.DoubleValue
5.762

@<SCITEGIC>MOL_PROPERTY
Idih
SciTegic.value.DoubleValue
0.001

@<SCITEGIC>MOL_PROPERTY
Tether
SciTegic.value.DoubleValue
0.000

@<TRIPOS>MOLECULE
guest-s22_vm2.mol2 : vm2 ligand conformer 61
          20          19           1
SMALL
USER_CHARGES
 
@<TRIPOS>ATOM
       1    C1      21.502992   18.318259   20.340534 C.2        1 MOL1        -0.2535
       2    H1      22.002481   17.351078   20.333499 H          1 MOL1         0.0845
       3    H2      22.127329   19.206013   20.254354 H          1 MOL1         0.0845
       4    C2      20.175761   18.408976   20.457540 C.2        1 MOL1        -0.1324
       5    H3      19.567382   17.508700   20.536616 H          1 MOL1         0.0833
       6    C3      19.413691   19.715476   20.464091 C.3        1 MOL1        -0.1813
       7    H4      18.466619   19.596558   19.921172 H          1 MOL1         0.0753
       8    H5      19.986413   20.470165   19.908292 H          1 MOL1         0.0753
       9    C4      19.136462   20.263345   21.885583 C.3        1 MOL1        -0.1855
      10    H6      20.081494   20.391488   22.431157 H          1 MOL1         0.0755
      11    H7      18.714355   21.271431   21.774842 H          1 MOL1         0.0755
      12    C5      18.137637   19.415823   22.715803 C.3        1 MOL1        -0.1855
      13    H8      17.365617   19.001380   22.053696 H          1 MOL1         0.0755
      14    H9      17.610743   20.078222   23.416676 H          1 MOL1         0.0755
      15    C6      18.792990   18.271340   23.537244 C.3        1 MOL1        -0.1958
      16    H10     18.007262   17.651317   23.984167 H          1 MOL1         0.0753
      17    H11     19.383079   17.611370   22.893749 H          1 MOL1         0.0753
      18    C7      19.682216   18.758878   24.678288 C.2        1 MOL1         0.6174
      19    O1      20.883883   18.605951   24.581896 O.co2      1 MOL1        -0.6695
      20    O2      19.145367   19.259952   25.647021 O.co2      1 MOL1        -0.6695
@<TRIPOS>BOND
    1     1     2    1
    2     1     3    1
    3     1     4    2
    4     4     5    1
    5     4     6    1
    6     6     7    1
    7     6     8    1
    8     6     9    1
    9     9    10    1
   10     9    11    1
   11     9    12    1
   12    12    13    1
   13    12    14    1
   14    12    15    1
   15    15    16    1
   16    15    17    1
   17    15    18    1
   18    18    19    1
   19    18    20    2
@<TRIPOS>SUBSTRUCTURE
       1 MOL1            1 RESIDUE      1      MOL     
@<SCITEGIC>MOL_PROPERTY
VM2 Rank
SciTegic.value.IntegerValue
61

@<SCITEGIC>MOL_PROPERTY
Conf_Id
SciTegic.value.IntegerValue
277

@<SCITEGIC>MOL_PROPERTY
Probability
SciTegic.value.DoubleValue
0.00

@<SCITEGIC>MOL_PROPERTY
Sum Probability
SciTegic.value.DoubleValue
99.98

@<SCITEGIC>MOL_PROPERTY
Delta G
SciTegic.value.DoubleValue
4.998

@<SCITEGIC>MOL_PROPERTY
G
SciTegic.value.DoubleValue
-16.891

@<SCITEGIC>MOL_PROPERTY
E
SciTegic.value.DoubleValue
-32.109

@<SCITEGIC>MOL_PROPERTY
-TS
SciTegic.value.DoubleValue
15.218

@<SCITEGIC>MOL_PROPERTY
U+W
SciTegic.value.DoubleValue
-48.205

@<SCITEGIC>MOL_PROPERTY
U
SciTegic.value.DoubleValue
14.182

@<SCITEGIC>MOL_PROPERTY
W
SciTegic.value.DoubleValue
-62.387

@<SCITEGIC>MOL_PROPERTY
W(PB)
SciTegic.value.DoubleValue
-64.528

@<SCITEGIC>MOL_PROPERTY
W(SA)
SciTegic.value.DoubleValue
2.142

@<SCITEGIC>MOL_PROPERTY
Valence
SciTegic.value.DoubleValue
11.820

@<SCITEGIC>MOL_PROPERTY
Coulomb
SciTegic.value.DoubleValue
2.077

@<SCITEGIC>MOL_PROPERTY
VdW
SciTegic.value.DoubleValue
0.285

@<SCITEGIC>MOL_PROPERTY
VdW6
SciTegic.value.DoubleValue
-8.249

@<SCITEGIC>MOL_PROPERTY
VdW12
SciTegic.value.DoubleValue
8.533

@<SCITEGIC>MOL_PROPERTY
Bond
SciTegic.value.DoubleValue
0.194

@<SCITEGIC>MOL_PROPERTY
Angle
SciTegic.value.DoubleValue
3.123

@<SCITEGIC>MOL_PROPERTY
Pdih
SciTegic.value.DoubleValue
8.501

@<SCITEGIC>MOL_PROPERTY
Idih
SciTegic.value.DoubleValue
0.002

@<SCITEGIC>MOL_PROPERTY
Tether
SciTegic.value.DoubleValue
0.000

@<TRIPOS>MOLECULE
guest-s22_vm2.mol2 : vm2 ligand conformer 62
          20          19           1
SMALL
USER_CHARGES
 
@<TRIPOS>ATOM
       1    C1      21.227499   17.908128   20.296926 C.2        1 MOL1        -0.2535
       2    H1      20.659681   17.022840   20.015542 H          1 MOL1         0.0845
       3    H2      22.307473   17.804236   20.385440 H          1 MOL1         0.0845
       4    C2      20.624763   19.076422   20.531994 C.2        1 MOL1        -0.1324
       5    H3      21.210903   19.952732   20.806571 H          1 MOL1         0.0833
       6    C3      19.132808   19.297426   20.418168 C.3        1 MOL1        -0.1813
       7    H4      18.715443   18.579349   19.699385 H          1 MOL1         0.0753
       8    H5      18.934993   20.292670   19.998402 H          1 MOL1         0.0753
       9    C4      18.378917   19.136845   21.761121 C.3        1 MOL1        -0.1855
      10    H6      17.302981   19.171846   21.542460 H          1 MOL1         0.0755
      11    H7      18.567672   18.139891   22.182556 H          1 MOL1         0.0755
      12    C5      18.689869   20.239162   22.806789 C.3        1 MOL1        -0.1855
      13    H8      17.808822   20.373851   23.449619 H          1 MOL1         0.0755
      14    H9      18.841144   21.199909   22.296647 H          1 MOL1         0.0755
      15    C6      19.908732   19.933446   23.720580 C.3        1 MOL1        -0.1958
      16    H10     20.806112   19.731637   23.127431 H          1 MOL1         0.0753
      17    H11     20.130984   20.814507   24.333665 H          1 MOL1         0.0753
      18    C7      19.687123   18.765587   24.678389 C.2        1 MOL1         0.6174
      19    O1      20.298537   17.733495   24.484381 O.co2      1 MOL1        -0.6695
      20    O2      18.922751   18.927489   25.609652 O.co2      1 MOL1        -0.6695
@<TRIPOS>BOND
    1     1     2    1
    2     1     3    1
    3     1     4    2
    4     4     5    1
    5     4     6    1
    6     6     7    1
    7     6     8    1
    8     6     9    1
    9     9    10    1
   10     9    11    1
   11     9    12    1
   12    12    13    1
   13    12    14    1
   14    12    15    1
   15    15    16    1
   16    15    17    1
   17    15    18    1
   18    18    19    1
   19    18    20    2
@<TRIPOS>SUBSTRUCTURE
       1 MOL1            1 RESIDUE      1      MOL     
@<SCITEGIC>MOL_PROPERTY
VM2 Rank
SciTegic.value.IntegerValue
62

@<SCITEGIC>MOL_PROPERTY
Conf_Id
SciTegic.value.IntegerValue
313

@<SCITEGIC>MOL_PROPERTY
Probability
SciTegic.value.DoubleValue
0.00

@<SCITEGIC>MOL_PROPERTY
Sum Probability
SciTegic.value.DoubleValue
99.99

@<SCITEGIC>MOL_PROPERTY
Delta G
SciTegic.value.DoubleValue
5.003

@<SCITEGIC>MOL_PROPERTY
G
SciTegic.value.DoubleValue
-16.886

@<SCITEGIC>MOL_PROPERTY
E
SciTegic.value.DoubleValue
-32.102

@<SCITEGIC>MOL_PROPERTY
-TS
SciTegic.value.DoubleValue
15.215

@<SCITEGIC>MOL_PROPERTY
U+W
SciTegic.value.DoubleValue
-48.198

@<SCITEGIC>MOL_PROPERTY
U
SciTegic.value.DoubleValue
14.187

@<SCITEGIC>MOL_PROPERTY
W
SciTegic.value.DoubleValue
-62.385

@<SCITEGIC>MOL_PROPERTY
W(PB)
SciTegic.value.DoubleValue
-64.531

@<SCITEGIC>MOL_PROPERTY
W(SA)
SciTegic.value.DoubleValue
2.146

@<SCITEGIC>MOL_PROPERTY
Valence
SciTegic.value.DoubleValue
11.819

@<SCITEGIC>MOL_PROPERTY
Coulomb
SciTegic.value.DoubleValue
2.085

@<SCITEGIC>MOL_PROPERTY
VdW
SciTegic.value.DoubleValue
0.283

@<SCITEGIC>MOL_PROPERTY
VdW6
SciTegic.value.DoubleValue
-8.250

@<SCITEGIC>MOL_PROPERTY
VdW12
SciTegic.value.DoubleValue
8.533

@<SCITEGIC>MOL_PROPERTY
Bond
SciTegic.value.DoubleValue
0.194

@<SCITEGIC>MOL_PROPERTY
Angle
SciTegic.value.DoubleValue
3.125

@<SCITEGIC>MOL_PROPERTY
Pdih
SciTegic.value.DoubleValue
8.498

@<SCITEGIC>MOL_PROPERTY
Idih
SciTegic.value.DoubleValue
0.002

@<SCITEGIC>MOL_PROPERTY
Tether
SciTegic.value.DoubleValue
0.000

@<TRIPOS>MOLECULE
guest-s22_vm2.mol2 : vm2 ligand conformer 63
          20          19           1
SMALL
USER_CHARGES
 
@<TRIPOS>ATOM
       1    C1      20.554613   17.849085   19.696483 C.2        1 MOL1        -0.2535
       2    H1      20.089192   18.274397   18.808847 H          1 MOL1         0.0845
       3    H2      21.399347   17.178788   19.547411 H          1 MOL1         0.0845
       4    C2      20.111313   18.138206   20.922762 C.2        1 MOL1        -0.1324
       5    H3      20.589150   17.699472   21.798732 H          1 MOL1         0.0833
       6    C3      18.940513   19.054570   21.207247 C.3        1 MOL1        -0.1813
       7    H4      18.294710   18.613476   21.975992 H          1 MOL1         0.0753
       8    H5      18.315303   19.142635   20.308626 H          1 MOL1         0.0753
       9    C4      19.389485   20.472690   21.631811 C.3        1 MOL1        -0.1855
      10    H6      19.958415   20.917297   20.803750 H          1 MOL1         0.0755
      11    H7      18.501364   21.105494   21.763557 H          1 MOL1         0.0755
      12    C5      20.256375   20.538289   22.916194 C.3        1 MOL1        -0.1855
      13    H8      20.607801   21.573051   23.025963 H          1 MOL1         0.0755
      14    H9      21.161780   19.927013   22.800366 H          1 MOL1         0.0755
      15    C6      19.513289   20.146078   24.224163 C.3        1 MOL1        -0.1958
      16    H10     20.054672   20.564589   25.080489 H          1 MOL1         0.0753
      17    H11     18.510372   20.589425   24.240348 H          1 MOL1         0.0753
      18    C7      19.397599   18.645203   24.481981 C.2        1 MOL1         0.6174
      19    O1      20.421562   18.004732   24.619803 O.co2      1 MOL1        -0.6695
      20    O2      18.286251   18.169148   24.607557 O.co2      1 MOL1        -0.6695
@<TRIPOS>BOND
    1     1     2    1
    2     1     3    1
    3     1     4    2
    4     4     5    1
    5     4     6    1
    6     6     7    1
    7     6     8    1
    8     6     9    1
    9     9    10    1
   10     9    11    1
   11     9    12    1
   12    12    13    1
   13    12    14    1
   14    12    15    1
   15    15    16    1
   16    15    17    1
   17    15    18    1
   18    18    19    1
   19    18    20    2
@<TRIPOS>SUBSTRUCTURE
       1 MOL1            1 RESIDUE      1      MOL     
@<SCITEGIC>MOL_PROPERTY
VM2 Rank
SciTegic.value.IntegerValue
63

@<SCITEGIC>MOL_PROPERTY
Conf_Id
SciTegic.value.IntegerValue
86

@<SCITEGIC>MOL_PROPERTY
Probability
SciTegic.value.DoubleValue
0.00

@<SCITEGIC>MOL_PROPERTY
Sum Probability
SciTegic.value.DoubleValue
99.99

@<SCITEGIC>MOL_PROPERTY
Delta G
SciTegic.value.DoubleValue
5.030

@<SCITEGIC>MOL_PROPERTY
G
SciTegic.value.DoubleValue
-16.859

@<SCITEGIC>MOL_PROPERTY
E
SciTegic.value.DoubleValue
-33.012

@<SCITEGIC>MOL_PROPERTY
-TS
SciTegic.value.DoubleValue
16.153

@<SCITEGIC>MOL_PROPERTY
U+W
SciTegic.value.DoubleValue
-49.108

@<SCITEGIC>MOL_PROPERTY
U
SciTegic.value.DoubleValue
13.083

@<SCITEGIC>MOL_PROPERTY
W
SciTegic.value.DoubleValue
-62.191

@<SCITEGIC>MOL_PROPERTY
W(PB)
SciTegic.value.DoubleValue
-64.313

@<SCITEGIC>MOL_PROPERTY
W(SA)
SciTegic.value.DoubleValue
2.122

@<SCITEGIC>MOL_PROPERTY
Valence
SciTegic.value.DoubleValue
11.309

@<SCITEGIC>MOL_PROPERTY
Coulomb
SciTegic.value.DoubleValue
1.656

@<SCITEGIC>MOL_PROPERTY
VdW
SciTegic.value.DoubleValue
0.119

@<SCITEGIC>MOL_PROPERTY
VdW6
SciTegic.value.DoubleValue
-9.164

@<SCITEGIC>MOL_PROPERTY
VdW12
SciTegic.value.DoubleValue
9.283

@<SCITEGIC>MOL_PROPERTY
Bond
SciTegic.value.DoubleValue
0.195

@<SCITEGIC>MOL_PROPERTY
Angle
SciTegic.value.DoubleValue
3.446

@<SCITEGIC>MOL_PROPERTY
Pdih
SciTegic.value.DoubleValue
7.656

@<SCITEGIC>MOL_PROPERTY
Idih
SciTegic.value.DoubleValue
0.011

@<SCITEGIC>MOL_PROPERTY
Tether
SciTegic.value.DoubleValue
0.000

@<TRIPOS>MOLECULE
guest-s22_vm2.mol2 : vm2 ligand conformer 64
          20          19           1
SMALL
USER_CHARGES
 
@<TRIPOS>ATOM
       1    C1      20.252440   17.758126   19.657392 C.2        1 MOL1        -0.2535
       2    H1      19.971121   16.748532   19.362982 H          1 MOL1         0.0845
       3    H2      20.602902   18.429342   18.875056 H          1 MOL1         0.0845
       4    C2      20.166667   18.154897   20.929823 C.2        1 MOL1        -0.1324
       5    H3      19.816316   17.466485   21.698899 H          1 MOL1         0.0833
       6    C3      20.545428   19.538089   21.414334 C.3        1 MOL1        -0.1813
       7    H4      21.210819   20.015051   20.682266 H          1 MOL1         0.0753
       8    H5      21.126826   19.466664   22.341409 H          1 MOL1         0.0753
       9    C4      19.312993   20.449607   21.622032 C.3        1 MOL1        -0.1855
      10    H6      19.653791   21.452638   21.912451 H          1 MOL1         0.0755
      11    H7      18.805487   20.569997   20.655086 H          1 MOL1         0.0755
      12    C5      18.279283   19.942479   22.661123 C.3        1 MOL1        -0.1855
      13    H8      17.909230   18.946865   22.380685 H          1 MOL1         0.0755
      14    H9      17.407363   20.608604   22.613020 H          1 MOL1         0.0755
      15    C6      18.786758   19.927103   24.130483 C.3        1 MOL1        -0.1958
      16    H10     19.349863   20.842470   24.348835 H          1 MOL1         0.0753
      17    H11     17.923106   19.922060   24.805480 H          1 MOL1         0.0753
      18    C7      19.636860   18.717313   24.512855 C.2        1 MOL1         0.6174
      19    O1      20.762258   18.915554   24.927193 O.co2      1 MOL1        -0.6695
      20    O2      19.128312   17.614832   24.452764 O.co2      1 MOL1        -0.6695
@<TRIPOS>BOND
    1     1     2    1
    2     1     3    1
    3     1     4    2
    4     4     5    1
    5     4     6    1
    6     6     7    1
    7     6     8    1
    8     6     9    1
    9     9    10    1
   10     9    11    1
   11     9    12    1
   12    12    13    1
   13    12    14    1
   14    12    15    1
   15    15    16    1
   16    15    17    1
   17    15    18    1
   18    18    19    1
   19    18    20    2
@<TRIPOS>SUBSTRUCTURE
       1 MOL1            1 RESIDUE      1      MOL     
@<SCITEGIC>MOL_PROPERTY
VM2 Rank
SciTegic.value.IntegerValue
64

@<SCITEGIC>MOL_PROPERTY
Conf_Id
SciTegic.value.IntegerValue
58

@<SCITEGIC>MOL_PROPERTY
Probability
SciTegic.value.DoubleValue
0.00

@<SCITEGIC>MOL_PROPERTY
Sum Probability
SciTegic.value.DoubleValue
99.99

@<SCITEGIC>MOL_PROPERTY
Delta G
SciTegic.value.DoubleValue
5.104

@<SCITEGIC>MOL_PROPERTY
G
SciTegic.value.DoubleValue
-16.785

@<SCITEGIC>MOL_PROPERTY
E
SciTegic.value.DoubleValue
-32.937

@<SCITEGIC>MOL_PROPERTY
-TS
SciTegic.value.DoubleValue
16.152

@<SCITEGIC>MOL_PROPERTY
U+W
SciTegic.value.DoubleValue
-49.033

@<SCITEGIC>MOL_PROPERTY
U
SciTegic.value.DoubleValue
13.083

@<SCITEGIC>MOL_PROPERTY
W
SciTegic.value.DoubleValue
-62.117

@<SCITEGIC>MOL_PROPERTY
W(PB)
SciTegic.value.DoubleValue
-64.210

@<SCITEGIC>MOL_PROPERTY
W(SA)
SciTegic.value.DoubleValue
2.094

@<SCITEGIC>MOL_PROPERTY
Valence
SciTegic.value.DoubleValue
11.308

@<SCITEGIC>MOL_PROPERTY
Coulomb
SciTegic.value.DoubleValue
1.656

@<SCITEGIC>MOL_PROPERTY
VdW
SciTegic.value.DoubleValue
0.119

@<SCITEGIC>MOL_PROPERTY
VdW6
SciTegic.value.DoubleValue
-9.164

@<SCITEGIC>MOL_PROPERTY
VdW12
SciTegic.value.DoubleValue
9.283

@<SCITEGIC>MOL_PROPERTY
Bond
SciTegic.value.DoubleValue
0.195

@<SCITEGIC>MOL_PROPERTY
Angle
SciTegic.value.DoubleValue
3.446

@<SCITEGIC>MOL_PROPERTY
Pdih
SciTegic.value.DoubleValue
7.656

@<SCITEGIC>MOL_PROPERTY
Idih
SciTegic.value.DoubleValue
0.011

@<SCITEGIC>MOL_PROPERTY
Tether
SciTegic.value.DoubleValue
0.000

@<TRIPOS>MOLECULE
guest-s22_vm2.mol2 : vm2 ligand conformer 65
          20          19           1
SMALL
USER_CHARGES
 
@<TRIPOS>ATOM
       1    C1      21.139000   17.935080   20.327811 C.2        1 MOL1        -0.2535
       2    H1      20.470775   17.350143   19.698090 H          1 MOL1         0.0845
       3    H2      22.120282   17.515735   20.542805 H          1 MOL1         0.0845
       4    C2      20.772086   19.120150   20.823417 C.2        1 MOL1        -0.1324
       5    H3      21.454007   19.685501   21.458563 H          1 MOL1         0.0833
       6    C3      19.423726   19.761665   20.577804 C.3        1 MOL1        -0.1813
       7    H4      18.795803   19.122231   19.942916 H          1 MOL1         0.0753
       8    H5      19.583771   20.690879   20.015081 H          1 MOL1         0.0753
       9    C4      18.662751   20.117591   21.878929 C.3        1 MOL1        -0.1855
      10    H6      19.310616   20.699863   22.548354 H          1 MOL1         0.0755
      11    H7      17.836469   20.787973   21.605847 H          1 MOL1         0.0755
      12    C5      18.054230   18.905299   22.631035 C.3        1 MOL1        -0.1855
      13    H8      17.538860   18.251518   21.914752 H          1 MOL1         0.0755
      14    H9      17.279495   19.275190   23.316875 H          1 MOL1         0.0755
      15    C6      19.067777   18.068762   23.459315 C.3        1 MOL1        -0.1958
      16    H10     18.544673   17.223577   23.921333 H          1 MOL1         0.0753
      17    H11     19.839241   17.636481   22.814905 H          1 MOL1         0.0753
      18    C7      19.746515   18.846588   24.583665 C.2        1 MOL1         0.6174
      19    O1      20.924519   19.122512   24.468780 O.co2      1 MOL1        -0.6695
      20    O2      19.080396   19.140353   25.557244 O.co2      1 MOL1        -0.6695
@<TRIPOS>BOND
    1     1     2    1
    2     1     3    1
    3     1     4    2
    4     4     5    1
    5     4     6    1
    6     6     7    1
    7     6     8    1
    8     6     9    1
    9     9    10    1
   10     9    11    1
   11     9    12    1
   12    12    13    1
   13    12    14    1
   14    12    15    1
   15    15    16    1
   16    15    17    1
   17    15    18    1
   18    18    19    1
   19    18    20    2
@<TRIPOS>SUBSTRUCTURE
       1 MOL1            1 RESIDUE      1      MOL     
@<SCITEGIC>MOL_PROPERTY
VM2 Rank
SciTegic.value.IntegerValue
65

@<SCITEGIC>MOL_PROPERTY
Conf_Id
SciTegic.value.IntegerValue
911

@<SCITEGIC>MOL_PROPERTY
Probability
SciTegic.value.DoubleValue
0.00

@<SCITEGIC>MOL_PROPERTY
Sum Probability
SciTegic.value.DoubleValue
99.99

@<SCITEGIC>MOL_PROPERTY
Delta G
SciTegic.value.DoubleValue
5.330

@<SCITEGIC>MOL_PROPERTY
G
SciTegic.value.DoubleValue
-16.559

@<SCITEGIC>MOL_PROPERTY
E
SciTegic.value.DoubleValue
-32.231

@<SCITEGIC>MOL_PROPERTY
-TS
SciTegic.value.DoubleValue
15.672

@<SCITEGIC>MOL_PROPERTY
U+W
SciTegic.value.DoubleValue
-48.328

@<SCITEGIC>MOL_PROPERTY
U
SciTegic.value.DoubleValue
13.662

@<SCITEGIC>MOL_PROPERTY
W
SciTegic.value.DoubleValue
-61.989

@<SCITEGIC>MOL_PROPERTY
W(PB)
SciTegic.value.DoubleValue
-64.088

@<SCITEGIC>MOL_PROPERTY
W(SA)
SciTegic.value.DoubleValue
2.098

@<SCITEGIC>MOL_PROPERTY
Valence
SciTegic.value.DoubleValue
11.349

@<SCITEGIC>MOL_PROPERTY
Coulomb
SciTegic.value.DoubleValue
2.218

@<SCITEGIC>MOL_PROPERTY
VdW
SciTegic.value.DoubleValue
0.094

@<SCITEGIC>MOL_PROPERTY
VdW6
SciTegic.value.DoubleValue
-8.850

@<SCITEGIC>MOL_PROPERTY
VdW12
SciTegic.value.DoubleValue
8.944

@<SCITEGIC>MOL_PROPERTY
Bond
SciTegic.value.DoubleValue
0.196

@<SCITEGIC>MOL_PROPERTY
Angle
SciTegic.value.DoubleValue
3.357

@<SCITEGIC>MOL_PROPERTY
Pdih
SciTegic.value.DoubleValue
7.795

@<SCITEGIC>MOL_PROPERTY
Idih
SciTegic.value.DoubleValue
0.001

@<SCITEGIC>MOL_PROPERTY
Tether
SciTegic.value.DoubleValue
0.000

@<TRIPOS>MOLECULE
guest-s22_vm2.mol2 : vm2 ligand conformer 66
          20          19           1
SMALL
USER_CHARGES
 
@<TRIPOS>ATOM
       1    C1      19.586919   17.467429   20.128199 C.2        1 MOL1        -0.2535
       2    H1      20.590380   17.385836   19.713914 H          1 MOL1         0.0845
       3    H2      18.973786   16.568005   20.137719 H          1 MOL1         0.0845
       4    C2      19.122767   18.623309   20.611052 C.2        1 MOL1        -0.1324
       5    H3      18.117650   18.680682   21.028780 H          1 MOL1         0.0833
       6    C3      19.918126   19.910327   20.641683 C.3        1 MOL1        -0.1813
       7    H4      19.414932   20.639590   19.993083 H          1 MOL1         0.0753
       8    H5      20.920097   19.761526   20.217233 H          1 MOL1         0.0753
       9    C4      20.034645   20.531017   22.055848 C.3        1 MOL1        -0.1855
      10    H6      20.399514   21.560228   21.936163 H          1 MOL1         0.0755
      11    H7      19.039657   20.618474   22.513290 H          1 MOL1         0.0755
      12    C5      21.009484   19.796034   23.012458 C.3        1 MOL1        -0.1855
      13    H8      21.272521   20.478778   23.832265 H          1 MOL1         0.0755
      14    H9      21.947664   19.580352   22.483879 H          1 MOL1         0.0755
      15    C6      20.454957   18.486870   23.638320 C.3        1 MOL1        -0.1958
      16    H10     20.219014   17.750801   22.863837 H          1 MOL1         0.0753
      17    H11     21.228753   18.032728   24.267949 H          1 MOL1         0.0753
      18    C7      19.222330   18.688607   24.515700 C.2        1 MOL1         0.6174
      19    O1      19.371954   19.228768   25.594454 O.co2      1 MOL1        -0.6695
      20    O2      18.149818   18.285639   24.110286 O.co2      1 MOL1        -0.6695
@<TRIPOS>BOND
    1     1     2    1
    2     1     3    1
    3     1     4    2
    4     4     5    1
    5     4     6    1
    6     6     7    1
    7     6     8    1
    8     6     9    1
    9     9    10    1
   10     9    11    1
   11     9    12    1
   12    12    13    1
   13    12    14    1
   14    12    15    1
   15    15    16    1
   16    15    17    1
   17    15    18    1
   18    18    19    1
   19    18    20    2
@<TRIPOS>SUBSTRUCTURE
       1 MOL1            1 RESIDUE      1      MOL     
@<SCITEGIC>MOL_PROPERTY
VM2 Rank
SciTegic.value.IntegerValue
66

@<SCITEGIC>MOL_PROPERTY
Conf_Id
SciTegic.value.IntegerValue
726

@<SCITEGIC>MOL_PROPERTY
Probability
SciTegic.value.DoubleValue
0.00

@<SCITEGIC>MOL_PROPERTY
Sum Probability
SciTegic.value.DoubleValue
100.00

@<SCITEGIC>MOL_PROPERTY
Delta G
SciTegic.value.DoubleValue
5.356

@<SCITEGIC>MOL_PROPERTY
G
SciTegic.value.DoubleValue
-16.534

@<SCITEGIC>MOL_PROPERTY
E
SciTegic.value.DoubleValue
-32.206

@<SCITEGIC>MOL_PROPERTY
-TS
SciTegic.value.DoubleValue
15.673

@<SCITEGIC>MOL_PROPERTY
U+W
SciTegic.value.DoubleValue
-48.302

@<SCITEGIC>MOL_PROPERTY
U
SciTegic.value.DoubleValue
13.663

@<SCITEGIC>MOL_PROPERTY
W
SciTegic.value.DoubleValue
-61.966

@<SCITEGIC>MOL_PROPERTY
W(PB)
SciTegic.value.DoubleValue
-64.074

@<SCITEGIC>MOL_PROPERTY
W(SA)
SciTegic.value.DoubleValue
2.108

@<SCITEGIC>MOL_PROPERTY
Valence
SciTegic.value.DoubleValue
11.349

@<SCITEGIC>MOL_PROPERTY
Coulomb
SciTegic.value.DoubleValue
2.221

@<SCITEGIC>MOL_PROPERTY
VdW
SciTegic.value.DoubleValue
0.093

@<SCITEGIC>MOL_PROPERTY
VdW6
SciTegic.value.DoubleValue
-8.851

@<SCITEGIC>MOL_PROPERTY
VdW12
SciTegic.value.DoubleValue
8.945

@<SCITEGIC>MOL_PROPERTY
Bond
SciTegic.value.DoubleValue
0.196

@<SCITEGIC>MOL_PROPERTY
Angle
SciTegic.value.DoubleValue
3.358

@<SCITEGIC>MOL_PROPERTY
Pdih
SciTegic.value.DoubleValue
7.794

@<SCITEGIC>MOL_PROPERTY
Idih
SciTegic.value.DoubleValue
0.001

@<SCITEGIC>MOL_PROPERTY
Tether
SciTegic.value.DoubleValue
0.000

@<TRIPOS>MOLECULE
guest-s22_vm2.mol2 : vm2 ligand conformer 67
          20          19           1
SMALL
USER_CHARGES
 
@<TRIPOS>ATOM
       1    C1      21.179962   19.347621   20.237392 C.2        1 MOL1        -0.2535
       2    H1      22.113693   19.868898   20.034296 H          1 MOL1         0.0845
       3    H2      21.116655   18.306691   19.927914 H          1 MOL1         0.0845
       4    C2      20.161930   19.972841   20.838298 C.2        1 MOL1        -0.1324
       5    H3      20.273544   21.016200   21.132068 H          1 MOL1         0.0833
       6    C3      18.816723   19.359980   21.188019 C.3        1 MOL1        -0.1813
       7    H4      18.116391   19.548889   20.363899 H          1 MOL1         0.0753
       8    H5      18.391399   19.896924   22.044104 H          1 MOL1         0.0753
       9    C4      18.837715   17.843533   21.507992 C.3        1 MOL1        -0.1855
      10    H6      17.808950   17.507040   21.694736 H          1 MOL1         0.0755
      11    H7      19.169709   17.294789   20.616925 H          1 MOL1         0.0755
      12    C5      19.726218   17.435060   22.712459 C.3        1 MOL1        -0.1855
      13    H8      20.759800   17.775037   22.562258 H          1 MOL1         0.0755
      14    H9      19.771921   16.337979   22.733728 H          1 MOL1         0.0755
      15    C6      19.207757   17.917627   24.096329 C.3        1 MOL1        -0.1958
      16    H10     18.120973   17.787652   24.163946 H          1 MOL1         0.0753
      17    H11     19.647427   17.289248   24.879550 H          1 MOL1         0.0753
      18    C7      19.559849   19.359793   24.455613 C.2        1 MOL1         0.6174
      19    O1      20.731801   19.643745   24.608876 O.co2      1 MOL1        -0.6695
      20    O2      18.649045   20.137799   24.663021 O.co2      1 MOL1        -0.6695
@<TRIPOS>BOND
    1     1     2    1
    2     1     3    1
    3     1     4    2
    4     4     5    1
    5     4     6    1
    6     6     7    1
    7     6     8    1
    8     6     9    1
    9     9    10    1
   10     9    11    1
   11     9    12    1
   12    12    13    1
   13    12    14    1
   14    12    15    1
   15    15    16    1
   16    15    17    1
   17    15    18    1
   18    18    19    1
   19    18    20    2
@<TRIPOS>SUBSTRUCTURE
       1 MOL1            1 RESIDUE      1      MOL     
@<SCITEGIC>MOL_PROPERTY
VM2 Rank
SciTegic.value.IntegerValue
67

@<SCITEGIC>MOL_PROPERTY
Conf_Id
SciTegic.value.IntegerValue
381

@<SCITEGIC>MOL_PROPERTY
Probability
SciTegic.value.DoubleValue
0.00

@<SCITEGIC>MOL_PROPERTY
Sum Probability
SciTegic.value.DoubleValue
100.00

@<SCITEGIC>MOL_PROPERTY
Delta G
SciTegic.value.DoubleValue
5.387

@<SCITEGIC>MOL_PROPERTY
G
SciTegic.value.DoubleValue
-16.502

@<SCITEGIC>MOL_PROPERTY
E
SciTegic.value.DoubleValue
-32.128

@<SCITEGIC>MOL_PROPERTY
-TS
SciTegic.value.DoubleValue
15.626

@<SCITEGIC>MOL_PROPERTY
U+W
SciTegic.value.DoubleValue
-48.224

@<SCITEGIC>MOL_PROPERTY
U
SciTegic.value.DoubleValue
14.666

@<SCITEGIC>MOL_PROPERTY
W
SciTegic.value.DoubleValue
-62.891

@<SCITEGIC>MOL_PROPERTY
W(PB)
SciTegic.value.DoubleValue
-64.994

@<SCITEGIC>MOL_PROPERTY
W(SA)
SciTegic.value.DoubleValue
2.103

@<SCITEGIC>MOL_PROPERTY
Valence
SciTegic.value.DoubleValue
11.118

@<SCITEGIC>MOL_PROPERTY
Coulomb
SciTegic.value.DoubleValue
3.067

@<SCITEGIC>MOL_PROPERTY
VdW
SciTegic.value.DoubleValue
0.482

@<SCITEGIC>MOL_PROPERTY
VdW6
SciTegic.value.DoubleValue
-9.661

@<SCITEGIC>MOL_PROPERTY
VdW12
SciTegic.value.DoubleValue
10.143

@<SCITEGIC>MOL_PROPERTY
Bond
SciTegic.value.DoubleValue
0.245

@<SCITEGIC>MOL_PROPERTY
Angle
SciTegic.value.DoubleValue
3.968

@<SCITEGIC>MOL_PROPERTY
Pdih
SciTegic.value.DoubleValue
6.886

@<SCITEGIC>MOL_PROPERTY
Idih
SciTegic.value.DoubleValue
0.019

@<SCITEGIC>MOL_PROPERTY
Tether
SciTegic.value.DoubleValue
0.000

@<TRIPOS>MOLECULE
guest-s22_vm2.mol2 : vm2 ligand conformer 68
          20          19           1
SMALL
USER_CHARGES
 
@<TRIPOS>ATOM
       1    C1      19.929359   17.344741   20.054763 C.2        1 MOL1        -0.2535
       2    H1      19.533065   16.331636   20.095771 H          1 MOL1         0.0845
       3    H2      20.804041   17.516040   19.429506 H          1 MOL1         0.0845
       4    C2      19.363702   18.334601   20.750689 C.2        1 MOL1        -0.1324
       5    H3      18.488351   18.135219   21.366358 H          1 MOL1         0.0833
       6    C3      19.858810   19.765941   20.737848 C.3        1 MOL1        -0.1813
       7    H4      19.017657   20.462343   20.622857 H          1 MOL1         0.0753
       8    H5      20.494807   19.913316   19.854457 H          1 MOL1         0.0753
       9    C4      20.685838   20.124287   21.997273 C.3        1 MOL1        -0.1855
      10    H6      21.220770   19.236630   22.362996 H          1 MOL1         0.0755
      11    H7      21.464360   20.840291   21.700637 H          1 MOL1         0.0755
      12    C5      19.869616   20.772999   23.144402 C.3        1 MOL1        -0.1855
      13    H8      19.389226   21.687630   22.771615 H          1 MOL1         0.0755
      14    H9      20.566499   21.095167   23.930520 H          1 MOL1         0.0755
      15    C6      18.789989   19.860145   23.786252 C.3        1 MOL1        -0.1958
      16    H10     18.265988   20.419513   24.569609 H          1 MOL1         0.0753
      17    H11     18.031937   19.584972   23.045412 H          1 MOL1         0.0753
      18    C7      19.334424   18.589600   24.435987 C.2        1 MOL1         0.6174
      19    O1      20.183989   18.701799   25.298488 O.co2      1 MOL1        -0.6695
      20    O2      18.855273   17.523887   24.102299 O.co2      1 MOL1        -0.6695
@<TRIPOS>BOND
    1     1     2    1
    2     1     3    1
    3     1     4    2
    4     4     5    1
    5     4     6    1
    6     6     7    1
    7     6     8    1
    8     6     9    1
    9     9    10    1
   10     9    11    1
   11     9    12    1
   12    12    13    1
   13    12    14    1
   14    12    15    1
   15    15    16    1
   16    15    17    1
   17    15    18    1
   18    18    19    1
   19    18    20    2
@<TRIPOS>SUBSTRUCTURE
       1 MOL1            1 RESIDUE      1      MOL     
@<SCITEGIC>MOL_PROPERTY
VM2 Rank
SciTegic.value.IntegerValue
68

@<SCITEGIC>MOL_PROPERTY
Conf_Id
SciTegic.value.IntegerValue
940

@<SCITEGIC>MOL_PROPERTY
Probability
SciTegic.value.DoubleValue
0.00

@<SCITEGIC>MOL_PROPERTY
Sum Probability
SciTegic.value.DoubleValue
100.00

@<SCITEGIC>MOL_PROPERTY
Delta G
SciTegic.value.DoubleValue
5.610

@<SCITEGIC>MOL_PROPERTY
G
SciTegic.value.DoubleValue
-16.279

@<SCITEGIC>MOL_PROPERTY
E
SciTegic.value.DoubleValue
-31.881

@<SCITEGIC>MOL_PROPERTY
-TS
SciTegic.value.DoubleValue
15.602

@<SCITEGIC>MOL_PROPERTY
U+W
SciTegic.value.DoubleValue
-47.977

@<SCITEGIC>MOL_PROPERTY
U
SciTegic.value.DoubleValue
14.799

@<SCITEGIC>MOL_PROPERTY
W
SciTegic.value.DoubleValue
-62.777

@<SCITEGIC>MOL_PROPERTY
W(PB)
SciTegic.value.DoubleValue
-64.893

@<SCITEGIC>MOL_PROPERTY
W(SA)
SciTegic.value.DoubleValue
2.116

@<SCITEGIC>MOL_PROPERTY
Valence
SciTegic.value.DoubleValue
11.950

@<SCITEGIC>MOL_PROPERTY
Coulomb
SciTegic.value.DoubleValue
2.728

@<SCITEGIC>MOL_PROPERTY
VdW
SciTegic.value.DoubleValue
0.122

@<SCITEGIC>MOL_PROPERTY
VdW6
SciTegic.value.DoubleValue
-8.855

@<SCITEGIC>MOL_PROPERTY
VdW12
SciTegic.value.DoubleValue
8.977

@<SCITEGIC>MOL_PROPERTY
Bond
SciTegic.value.DoubleValue
0.186

@<SCITEGIC>MOL_PROPERTY
Angle
SciTegic.value.DoubleValue
3.315

@<SCITEGIC>MOL_PROPERTY
Pdih
SciTegic.value.DoubleValue
8.442

@<SCITEGIC>MOL_PROPERTY
Idih
SciTegic.value.DoubleValue
0.007

@<SCITEGIC>MOL_PROPERTY
Tether
SciTegic.value.DoubleValue
0.000

@<TRIPOS>MOLECULE
guest-s22_vm2.mol2 : vm2 ligand conformer 69
          20          19           1
SMALL
USER_CHARGES
 
@<TRIPOS>ATOM
       1    C1      20.204852   17.311548   20.823623 C.2        1 MOL1        -0.2535
       2    H1      19.910273   16.495348   20.166529 H          1 MOL1         0.0845
       3    H2      20.555516   17.050771   21.821336 H          1 MOL1         0.0845
       4    C2      20.129577   18.583205   20.422807 C.2        1 MOL1        -0.1324
       5    H3      19.771499   18.823531   19.422199 H          1 MOL1         0.0833
       6    C3      20.520526   19.769354   21.278576 C.3        1 MOL1        -0.1813
       7    H4      21.219467   20.398543   20.711928 H          1 MOL1         0.0753
       8    H5      21.066727   19.443056   22.171555 H          1 MOL1         0.0753
       9    C4      19.299692   20.630353   21.679670 C.3        1 MOL1        -0.1855
      10    H6      19.648719   21.551392   22.165899 H          1 MOL1         0.0755
      11    H7      18.786707   20.949481   20.762079 H          1 MOL1         0.0755
      12    C5      18.272494   19.922089   22.600703 C.3        1 MOL1        -0.1855
      13    H8      18.001611   18.938070   22.193859 H          1 MOL1         0.0755
      14    H9      17.349610   20.517361   22.586899 H          1 MOL1         0.0755
      15    C6      18.720551   19.782439   24.082769 C.3        1 MOL1        -0.1958
      16    H10     19.174760   20.716539   24.434412 H          1 MOL1         0.0753
      17    H11     17.835312   19.612268   24.706630 H          1 MOL1         0.0753
      18    C7      19.677650   18.628318   24.369660 C.2        1 MOL1         0.6174
      19    O1      20.803179   18.895521   24.743279 O.co2      1 MOL1        -0.6695
      20    O2      19.242479   17.495174   24.306914 O.co2      1 MOL1        -0.6695
@<TRIPOS>BOND
    1     1     2    1
    2     1     3    1
    3     1     4    2
    4     4     5    1
    5     4     6    1
    6     6     7    1
    7     6     8    1
    8     6     9    1
    9     9    10    1
   10     9    11    1
   11     9    12    1
   12    12    13    1
   13    12    14    1
   14    12    15    1
   15    15    16    1
   16    15    17    1
   17    15    18    1
   18    18    19    1
   19    18    20    2
@<TRIPOS>SUBSTRUCTURE
       1 MOL1            1 RESIDUE      1      MOL     
@<SCITEGIC>MOL_PROPERTY
VM2 Rank
SciTegic.value.IntegerValue
69

@<SCITEGIC>MOL_PROPERTY
Conf_Id
SciTegic.value.IntegerValue
574

@<SCITEGIC>MOL_PROPERTY
Probability
SciTegic.value.DoubleValue
0.00

@<SCITEGIC>MOL_PROPERTY
Sum Probability
SciTegic.value.DoubleValue
100.00

@<SCITEGIC>MOL_PROPERTY
Delta G
SciTegic.value.DoubleValue
5.856

@<SCITEGIC>MOL_PROPERTY
G
SciTegic.value.DoubleValue
-16.033

@<SCITEGIC>MOL_PROPERTY
E
SciTegic.value.DoubleValue
-32.086

@<SCITEGIC>MOL_PROPERTY
-TS
SciTegic.value.DoubleValue
16.053

@<SCITEGIC>MOL_PROPERTY
U+W
SciTegic.value.DoubleValue
-48.182

@<SCITEGIC>MOL_PROPERTY
U
SciTegic.value.DoubleValue
14.642

@<SCITEGIC>MOL_PROPERTY
W
SciTegic.value.DoubleValue
-62.824

@<SCITEGIC>MOL_PROPERTY
W(PB)
SciTegic.value.DoubleValue
-64.914

@<SCITEGIC>MOL_PROPERTY
W(SA)
SciTegic.value.DoubleValue
2.090

@<SCITEGIC>MOL_PROPERTY
Valence
SciTegic.value.DoubleValue
11.578

@<SCITEGIC>MOL_PROPERTY
Coulomb
SciTegic.value.DoubleValue
3.284

@<SCITEGIC>MOL_PROPERTY
VdW
SciTegic.value.DoubleValue
-0.219

@<SCITEGIC>MOL_PROPERTY
VdW6
SciTegic.value.DoubleValue
-9.345

@<SCITEGIC>MOL_PROPERTY
VdW12
SciTegic.value.DoubleValue
9.126

@<SCITEGIC>MOL_PROPERTY
Bond
SciTegic.value.DoubleValue
0.192

@<SCITEGIC>MOL_PROPERTY
Angle
SciTegic.value.DoubleValue
3.435

@<SCITEGIC>MOL_PROPERTY
Pdih
SciTegic.value.DoubleValue
7.929

@<SCITEGIC>MOL_PROPERTY
Idih
SciTegic.value.DoubleValue
0.022

@<SCITEGIC>MOL_PROPERTY
Tether
SciTegic.value.DoubleValue
0.000

@<TRIPOS>MOLECULE
guest-s22_vm2.mol2 : vm2 ligand conformer 70
          20          19           1
SMALL
USER_CHARGES
 
@<TRIPOS>ATOM
       1    C1      18.159674   19.085970   20.590603 C.2        1 MOL1        -0.2535
       2    H1      17.481451   18.603047   19.889511 H          1 MOL1         0.0845
       3    H2      17.728137   19.503277   21.499465 H          1 MOL1         0.0845
       4    C2      19.471035   19.154912   20.347676 C.2        1 MOL1        -0.1324
       5    H3      19.883800   18.727163   19.434524 H          1 MOL1         0.0833
       6    C3      20.474367   19.809417   21.273461 C.3        1 MOL1        -0.1813
       7    H4      19.965983   20.397721   22.046546 H          1 MOL1         0.0753
       8    H5      21.073016   20.525848   20.695678 H          1 MOL1         0.0753
       9    C4      21.430785   18.781259   21.922142 C.3        1 MOL1        -0.1855
      10    H6      21.930813   18.221745   21.119718 H          1 MOL1         0.0755
      11    H7      22.226894   19.314249   22.459434 H          1 MOL1         0.0755
      12    C5      20.752272   17.770180   22.882567 C.3        1 MOL1        -0.1855
      13    H8      21.461419   16.949257   23.054180 H          1 MOL1         0.0755
      14    H9      19.873534   17.313732   22.406469 H          1 MOL1         0.0755
      15    C6      20.364717   18.355265   24.269740 C.3        1 MOL1        -0.1958
      16    H10     20.234188   17.529767   24.979193 H          1 MOL1         0.0753
      17    H11     21.177336   18.978137   24.662405 H          1 MOL1         0.0753
      18    C7      19.066863   19.158371   24.300250 C.2        1 MOL1         0.6174
      19    O1      19.132422   20.345471   24.553829 O.co2      1 MOL1        -0.6695
      20    O2      18.018864   18.557155   24.167731 O.co2      1 MOL1        -0.6695
@<TRIPOS>BOND
    1     1     2    1
    2     1     3    1
    3     1     4    2
    4     4     5    1
    5     4     6    1
    6     6     7    1
    7     6     8    1
    8     6     9    1
    9     9    10    1
   10     9    11    1
   11     9    12    1
   12    12    13    1
   13    12    14    1
   14    12    15    1
   15    15    16    1
   16    15    17    1
   17    15    18    1
   18    18    19    1
   19    18    20    2
@<TRIPOS>SUBSTRUCTURE
       1 MOL1            1 RESIDUE      1      MOL     
@<SCITEGIC>MOL_PROPERTY
VM2 Rank
SciTegic.value.IntegerValue
70

@<SCITEGIC>MOL_PROPERTY
Conf_Id
SciTegic.value.IntegerValue
173

@<SCITEGIC>MOL_PROPERTY
Probability
SciTegic.value.DoubleValue
0.00

@<SCITEGIC>MOL_PROPERTY
Sum Probability
SciTegic.value.DoubleValue
100.00

@<SCITEGIC>MOL_PROPERTY
Delta G
SciTegic.value.DoubleValue
5.862

@<SCITEGIC>MOL_PROPERTY
G
SciTegic.value.DoubleValue
-16.027

@<SCITEGIC>MOL_PROPERTY
E
SciTegic.value.DoubleValue
-32.080

@<SCITEGIC>MOL_PROPERTY
-TS
SciTegic.value.DoubleValue
16.053

@<SCITEGIC>MOL_PROPERTY
U+W
SciTegic.value.DoubleValue
-48.176

@<SCITEGIC>MOL_PROPERTY
U
SciTegic.value.DoubleValue
14.640

@<SCITEGIC>MOL_PROPERTY
W
SciTegic.value.DoubleValue
-62.816

@<SCITEGIC>MOL_PROPERTY
W(PB)
SciTegic.value.DoubleValue
-64.895

@<SCITEGIC>MOL_PROPERTY
W(SA)
SciTegic.value.DoubleValue
2.079

@<SCITEGIC>MOL_PROPERTY
Valence
SciTegic.value.DoubleValue
11.577

@<SCITEGIC>MOL_PROPERTY
Coulomb
SciTegic.value.DoubleValue
3.282

@<SCITEGIC>MOL_PROPERTY
VdW
SciTegic.value.DoubleValue
-0.219

@<SCITEGIC>MOL_PROPERTY
VdW6
SciTegic.value.DoubleValue
-9.345

@<SCITEGIC>MOL_PROPERTY
VdW12
SciTegic.value.DoubleValue
9.126

@<SCITEGIC>MOL_PROPERTY
Bond
SciTegic.value.DoubleValue
0.192

@<SCITEGIC>MOL_PROPERTY
Angle
SciTegic.value.DoubleValue
3.435

@<SCITEGIC>MOL_PROPERTY
Pdih
SciTegic.value.DoubleValue
7.929

@<SCITEGIC>MOL_PROPERTY
Idih
SciTegic.value.DoubleValue
0.021

@<SCITEGIC>MOL_PROPERTY
Tether
SciTegic.value.DoubleValue
0.000

@<TRIPOS>MOLECULE
guest-s22_vm2.mol2 : vm2 ligand conformer 71
          20          19           1
SMALL
USER_CHARGES
 
@<TRIPOS>ATOM
       1    C1      21.344768   19.289497   19.918510 C.2        1 MOL1        -0.2535
       2    H1      20.837882   19.278017   18.954983 H          1 MOL1         0.0845
       3    H2      22.430235   19.206553   19.914857 H          1 MOL1         0.0845
       4    C2      20.665094   19.397772   21.063235 C.2        1 MOL1        -0.1324
       5    H3      21.196293   19.410251   22.012658 H          1 MOL1         0.0833
       6    C3      19.157978   19.523881   21.142277 C.3        1 MOL1        -0.1813
       7    H4      18.781020   19.883316   20.175219 H          1 MOL1         0.0753
       8    H5      18.870998   20.286659   21.878573 H          1 MOL1         0.0753
       9    C4      18.470132   18.174929   21.462668 C.3        1 MOL1        -0.1855
      10    H6      17.535604   18.123677   20.887415 H          1 MOL1         0.0755
      11    H7      19.089043   17.343353   21.098049 H          1 MOL1         0.0755
      12    C5      18.111210   17.955061   22.954561 C.3        1 MOL1        -0.1855
      13    H8      17.580761   16.996058   23.027702 H          1 MOL1         0.0755
      14    H9      17.390878   18.717340   23.282080 H          1 MOL1         0.0755
      15    C6      19.320783   17.908418   23.931500 C.3        1 MOL1        -0.1958
      16    H10     19.039160   17.326897   24.816726 H          1 MOL1         0.0753
      17    H11     20.162986   17.382099   23.466326 H          1 MOL1         0.0753
      18    C7      19.808341   19.260866   24.453831 C.2        1 MOL1         0.6174
      19    O1      21.005891   19.416240   24.590442 O.co2      1 MOL1        -0.6695
      20    O2      18.986803   20.091337   24.790975 O.co2      1 MOL1        -0.6695
@<TRIPOS>BOND
    1     1     2    1
    2     1     3    1
    3     1     4    2
    4     4     5    1
    5     4     6    1
    6     6     7    1
    7     6     8    1
    8     6     9    1
    9     9    10    1
   10     9    11    1
   11     9    12    1
   12    12    13    1
   13    12    14    1
   14    12    15    1
   15    15    16    1
   16    15    17    1
   17    15    18    1
   18    18    19    1
   19    18    20    2
@<TRIPOS>SUBSTRUCTURE
       1 MOL1            1 RESIDUE      1      MOL     
@<SCITEGIC>MOL_PROPERTY
VM2 Rank
SciTegic.value.IntegerValue
71

@<SCITEGIC>MOL_PROPERTY
Conf_Id
SciTegic.value.IntegerValue
670

@<SCITEGIC>MOL_PROPERTY
Probability
SciTegic.value.DoubleValue
0.00

@<SCITEGIC>MOL_PROPERTY
Sum Probability
SciTegic.value.DoubleValue
100.00

@<SCITEGIC>MOL_PROPERTY
Delta G
SciTegic.value.DoubleValue
6.783

@<SCITEGIC>MOL_PROPERTY
G
SciTegic.value.DoubleValue
-15.106

@<SCITEGIC>MOL_PROPERTY
E
SciTegic.value.DoubleValue
-30.714

@<SCITEGIC>MOL_PROPERTY
-TS
SciTegic.value.DoubleValue
15.608

@<SCITEGIC>MOL_PROPERTY
U+W
SciTegic.value.DoubleValue
-46.810

@<SCITEGIC>MOL_PROPERTY
U
SciTegic.value.DoubleValue
15.456

@<SCITEGIC>MOL_PROPERTY
W
SciTegic.value.DoubleValue
-62.266

@<SCITEGIC>MOL_PROPERTY
W(PB)
SciTegic.value.DoubleValue
-64.358

@<SCITEGIC>MOL_PROPERTY
W(SA)
SciTegic.value.DoubleValue
2.093

@<SCITEGIC>MOL_PROPERTY
Valence
SciTegic.value.DoubleValue
13.615

@<SCITEGIC>MOL_PROPERTY
Coulomb
SciTegic.value.DoubleValue
1.409

@<SCITEGIC>MOL_PROPERTY
VdW
SciTegic.value.DoubleValue
0.431

@<SCITEGIC>MOL_PROPERTY
VdW6
SciTegic.value.DoubleValue
-9.299

@<SCITEGIC>MOL_PROPERTY
VdW12
SciTegic.value.DoubleValue
9.730

@<SCITEGIC>MOL_PROPERTY
Bond
SciTegic.value.DoubleValue
0.212

@<SCITEGIC>MOL_PROPERTY
Angle
SciTegic.value.DoubleValue
3.797

@<SCITEGIC>MOL_PROPERTY
Pdih
SciTegic.value.DoubleValue
9.591

@<SCITEGIC>MOL_PROPERTY
Idih
SciTegic.value.DoubleValue
0.016

@<SCITEGIC>MOL_PROPERTY
Tether
SciTegic.value.DoubleValue
0.000

@<TRIPOS>MOLECULE
guest-s22_vm2.mol2 : vm2 ligand conformer 72
          20          19           1
SMALL
USER_CHARGES
 
@<TRIPOS>ATOM
       1    C1      18.780069   18.516712   19.587357 C.2        1 MOL1        -0.2535
       2    H1      17.951569   17.856516   19.336632 H          1 MOL1         0.0845
       3    H2      19.418883   18.851445   18.771684 H          1 MOL1         0.0845
       4    C2      19.002346   18.896225   20.848564 C.2        1 MOL1        -0.1324
       5    H3      18.346762   18.549978   21.644842 H          1 MOL1         0.0833
       6    C3      20.129595   19.816656   21.267695 C.3        1 MOL1        -0.1813
       7    H4      19.773898   20.558618   21.995218 H          1 MOL1         0.0753
       8    H5      20.462984   20.390399   20.392387 H          1 MOL1         0.0753
       9    C4      21.343654   19.041131   21.833448 C.3        1 MOL1        -0.1855
      10    H6      21.382587   18.034676   21.394077 H          1 MOL1         0.0755
      11    H7      22.258609   19.547451   21.496725 H          1 MOL1         0.0755
      12    C5      21.405083   18.948072   23.379564 C.3        1 MOL1        -0.1855
      13    H8      21.494250   19.954423   23.811446 H          1 MOL1         0.0755
      14    H9      22.337601   18.430144   23.641430 H          1 MOL1         0.0755
      15    C6      20.228234   18.181980   24.048732 C.3        1 MOL1        -0.1958
      16    H10     19.944477   17.316157   23.438376 H          1 MOL1         0.0753
      17    H11     20.565587   17.787128   25.013816 H          1 MOL1         0.0753
      18    C7      18.977352   19.010303   24.346791 C.2        1 MOL1         0.6174
      19    O1      19.108806   20.128043   24.806844 O.co2      1 MOL1        -0.6695
      20    O2      17.895862   18.478878   24.189006 O.co2      1 MOL1        -0.6695
@<TRIPOS>BOND
    1     1     2    1
    2     1     3    1
    3     1     4    2
    4     4     5    1
    5     4     6    1
    6     6     7    1
    7     6     8    1
    8     6     9    1
    9     9    10    1
   10     9    11    1
   11     9    12    1
   12    12    13    1
   13    12    14    1
   14    12    15    1
   15    15    16    1
   16    15    17    1
   17    15    18    1
   18    18    19    1
   19    18    20    2
@<TRIPOS>SUBSTRUCTURE
       1 MOL1            1 RESIDUE      1      MOL     
@<SCITEGIC>MOL_PROPERTY
VM2 Rank
SciTegic.value.IntegerValue
72

@<SCITEGIC>MOL_PROPERTY
Conf_Id
SciTegic.value.IntegerValue
286

@<SCITEGIC>MOL_PROPERTY
Probability
SciTegic.value.DoubleValue
0.00

@<SCITEGIC>MOL_PROPERTY
Sum Probability
SciTegic.value.DoubleValue
100.00

@<SCITEGIC>MOL_PROPERTY
Delta G
SciTegic.value.DoubleValue
6.793

@<SCITEGIC>MOL_PROPERTY
G
SciTegic.value.DoubleValue
-15.097

@<SCITEGIC>MOL_PROPERTY
E
SciTegic.value.DoubleValue
-30.706

@<SCITEGIC>MOL_PROPERTY
-TS
SciTegic.value.DoubleValue
15.610

@<SCITEGIC>MOL_PROPERTY
U+W
SciTegic.value.DoubleValue
-46.803

@<SCITEGIC>MOL_PROPERTY
U
SciTegic.value.DoubleValue
15.456

@<SCITEGIC>MOL_PROPERTY
W
SciTegic.value.DoubleValue
-62.259

@<SCITEGIC>MOL_PROPERTY
W(PB)
SciTegic.value.DoubleValue
-64.378

@<SCITEGIC>MOL_PROPERTY
W(SA)
SciTegic.value.DoubleValue
2.119

@<SCITEGIC>MOL_PROPERTY
Valence
SciTegic.value.DoubleValue
13.615

@<SCITEGIC>MOL_PROPERTY
Coulomb
SciTegic.value.DoubleValue
1.410

@<SCITEGIC>MOL_PROPERTY
VdW
SciTegic.value.DoubleValue
0.431

@<SCITEGIC>MOL_PROPERTY
VdW6
SciTegic.value.DoubleValue
-9.299

@<SCITEGIC>MOL_PROPERTY
VdW12
SciTegic.value.DoubleValue
9.730

@<SCITEGIC>MOL_PROPERTY
Bond
SciTegic.value.DoubleValue
0.212

@<SCITEGIC>MOL_PROPERTY
Angle
SciTegic.value.DoubleValue
3.796

@<SCITEGIC>MOL_PROPERTY
Pdih
SciTegic.value.DoubleValue
9.591

@<SCITEGIC>MOL_PROPERTY
Idih
SciTegic.value.DoubleValue
0.016

@<SCITEGIC>MOL_PROPERTY
Tether
SciTegic.value.DoubleValue
0.000

@<TRIPOS>MOLECULE
guest-s22_vm2.mol2 : vm2 ligand conformer 73
          20          19           1
SMALL
USER_CHARGES
 
@<TRIPOS>ATOM
       1    C1      18.044757   18.645297   20.952261 C.2        1 MOL1        -0.2535
       2    H1      17.420721   17.807819   20.645981 H          1 MOL1         0.0845
       3    H2      17.567569   19.445403   21.516236 H          1 MOL1         0.0845
       4    C2      19.346325   18.681327   20.657151 C.2        1 MOL1        -0.1324
       5    H3      19.801059   17.867120   20.093723 H          1 MOL1         0.0833
       6    C3      20.280230   19.807885   21.047757 C.3        1 MOL1        -0.1813
       7    H4      19.762608   20.568931   21.647792 H          1 MOL1         0.0753
       8    H5      20.603990   20.310042   20.126506 H          1 MOL1         0.0753
       9    C4      21.546153   19.309683   21.786610 C.3        1 MOL1        -0.1855
      10    H6      21.839566   18.321897   21.405690 H          1 MOL1         0.0755
      11    H7      22.375013   19.984070   21.531392 H          1 MOL1         0.0755
      12    C5      21.441079   19.270791   23.332430 C.3        1 MOL1        -0.1855
      13    H8      21.283738   20.285144   23.723726 H          1 MOL1         0.0755
      14    H9      22.420103   18.956439   23.718519 H          1 MOL1         0.0755
      15    C6      20.369289   18.296922   23.902542 C.3        1 MOL1        -0.1958
      16    H10     20.289259   17.408617   23.264711 H          1 MOL1         0.0753
      17    H11     20.700004   17.944634   24.886189 H          1 MOL1         0.0753
      18    C7      18.965391   18.869785   24.114413 C.2        1 MOL1         0.6174
      19    O1      18.828033   20.061450   24.315782 O.co2      1 MOL1        -0.6695
      20    O2      18.049743   18.074860   24.199054 O.co2      1 MOL1        -0.6695
@<TRIPOS>BOND
    1     1     2    1
    2     1     3    1
    3     1     4    2
    4     4     5    1
    5     4     6    1
    6     6     7    1
    7     6     8    1
    8     6     9    1
    9     9    10    1
   10     9    11    1
   11     9    12    1
   12    12    13    1
   13    12    14    1
   14    12    15    1
   15    15    16    1
   16    15    17    1
   17    15    18    1
   18    18    19    1
   19    18    20    2
@<TRIPOS>SUBSTRUCTURE
       1 MOL1            1 RESIDUE      1      MOL     
@<SCITEGIC>MOL_PROPERTY
VM2 Rank
SciTegic.value.IntegerValue
73

@<SCITEGIC>MOL_PROPERTY
Conf_Id
SciTegic.value.IntegerValue
496

@<SCITEGIC>MOL_PROPERTY
Probability
SciTegic.value.DoubleValue
0.00

@<SCITEGIC>MOL_PROPERTY
Sum Probability
SciTegic.value.DoubleValue
100.00

@<SCITEGIC>MOL_PROPERTY
Delta G
SciTegic.value.DoubleValue
9.344

@<SCITEGIC>MOL_PROPERTY
G
SciTegic.value.DoubleValue
-12.545

@<SCITEGIC>MOL_PROPERTY
E
SciTegic.value.DoubleValue
-28.539

@<SCITEGIC>MOL_PROPERTY
-TS
SciTegic.value.DoubleValue
15.994

@<SCITEGIC>MOL_PROPERTY
U+W
SciTegic.value.DoubleValue
-44.635

@<SCITEGIC>MOL_PROPERTY
U
SciTegic.value.DoubleValue
18.570

@<SCITEGIC>MOL_PROPERTY
W
SciTegic.value.DoubleValue
-63.205

@<SCITEGIC>MOL_PROPERTY
W(PB)
SciTegic.value.DoubleValue
-65.275

@<SCITEGIC>MOL_PROPERTY
W(SA)
SciTegic.value.DoubleValue
2.070

@<SCITEGIC>MOL_PROPERTY
Valence
SciTegic.value.DoubleValue
14.099

@<SCITEGIC>MOL_PROPERTY
Coulomb
SciTegic.value.DoubleValue
4.495

@<SCITEGIC>MOL_PROPERTY
VdW
SciTegic.value.DoubleValue
-0.023

@<SCITEGIC>MOL_PROPERTY
VdW6
SciTegic.value.DoubleValue
-10.119

@<SCITEGIC>MOL_PROPERTY
VdW12
SciTegic.value.DoubleValue
10.096

@<SCITEGIC>MOL_PROPERTY
Bond
SciTegic.value.DoubleValue
0.225

@<SCITEGIC>MOL_PROPERTY
Angle
SciTegic.value.DoubleValue
4.256

@<SCITEGIC>MOL_PROPERTY
Pdih
SciTegic.value.DoubleValue
9.582

@<SCITEGIC>MOL_PROPERTY
Idih
SciTegic.value.DoubleValue
0.036

@<SCITEGIC>MOL_PROPERTY
Tether
SciTegic.value.DoubleValue
0.000

