VeraChem MOL file


 20 19  0  0  0  0  0  0  0  0999 V2000     
   20.4454   18.0660   18.7399 C   0  0  0  0  0  0  0  0  0  0  0  0
   20.6596   17.7974   17.7068 H   0  0  0  0  0  0  0  0  0  0  0  0
   20.5833   17.2883   19.4880 H   0  0  0  0  0  0  0  0  0  0  0  0
   20.0331   19.2995   19.0536 C   0  0  0  0  0  0  0  0  0  0  0  0
   19.9134   20.0362   18.2595 H   0  0  0  0  0  0  0  0  0  0  0  0
   19.6973   19.8197   20.4413 C   0  0  0  0  0  0  0  0  0  0  0  0
   18.6645   20.1929   20.4378 H   0  0  0  0  0  0  0  0  0  0  0  0
   20.3274   20.6941   20.6523 H   0  0  0  0  0  0  0  0  0  0  0  0
   19.8605   18.7897   21.5834 C   0  0  0  0  0  0  0  0  0  0  0  0
   19.2166   17.9210   21.3889 H   0  0  0  0  0  0  0  0  0  0  0  0
   20.8975   18.4276   21.6057 H   0  0  0  0  0  0  0  0  0  0  0  0
   19.5004   19.3966   22.9571 C   0  0  0  0  0  0  0  0  0  0  0  0
   18.4637   19.7608   22.9413 H   0  0  0  0  0  0  0  0  0  0  0  0
   20.1412   20.2665   23.1577 H   0  0  0  0  0  0  0  0  0  0  0  0
   19.6629   18.3671   24.1025 C   0  0  0  0  0  0  0  0  0  0  0  0
   19.0192   17.4974   23.9243 H   0  0  0  0  0  0  0  0  0  0  0  0
   20.6967   18.0031   24.1407 H   0  0  0  0  0  0  0  0  0  0  0  0
   19.3129   18.9430   25.4699 C   0  0  0  0  0  0  0  0  0  0  0  0
   20.1971   19.4750   26.1116 O   0  5  0  0  0  0  0  0  0  0  0  0
   18.1613   18.8614   25.8489 O   0  0  0  0  0  0  0  0  0  0  0  0
  1  2  1  0  0  0  0
  1  3  1  0  0  0  0
  1  4  2  0  0  0  0
  4  5  1  0  0  0  0
  4  6  1  0  0  0  0
  6  7  1  0  0  0  0
  6  8  1  0  0  0  0
  6  9  1  0  0  0  0
  9 10  1  0  0  0  0
  9 11  1  0  0  0  0
  9 12  1  0  0  0  0
 12 13  1  0  0  0  0
 12 14  1  0  0  0  0
 12 15  1  0  0  0  0
 15 16  1  0  0  0  0
 15 17  1  0  0  0  0
 15 18  1  0  0  0  0
 18 19  1  0  0  0  0
 18 20  2  0  0  0  0
M  END
> <VM2 Rank>
1

> <Conf_Id>
204

> <Probability>
13.63

> <Sum Probability>
13.63

> <Delta G>
0.000

> <G>
-21.889

> <E>
-37.137

> <-TS>
15.248

> <U+W>
-53.233

> <U>
6.572

> <W>
-59.803

> <W(PB)>
-62.037

> <W(SA)>
2.234

> <Valence>
7.989

> <Coulomb>
-2.698

> <VdW>
1.281

> <VdW6>
-6.467

> <VdW12>
7.748

> <Bond>
0.136

> <Angle>
2.854

> <Pdih>
4.998

> <Idih>
0.001

> <Tether>
0.000

$$$$
VeraChem MOL file


 20 19  0  0  0  0  0  0  0  0999 V2000     
   19.7354   18.4519   18.2413 C   0  0  0  0  0  0  0  0  0  0  0  0
   18.6526   18.3592   18.3078 H   0  0  0  0  0  0  0  0  0  0  0  0
   20.2194   18.0462   17.3544 H   0  0  0  0  0  0  0  0  0  0  0  0
   20.4463   19.0372   19.2086 C   0  0  0  0  0  0  0  0  0  0  0  0
   21.5296   19.1191   19.1229 H   0  0  0  0  0  0  0  0  0  0  0  0
   19.8446   19.6233   20.4664 C   0  0  0  0  0  0  0  0  0  0  0  0
   18.7575   19.7332   20.3525 H   0  0  0  0  0  0  0  0  0  0  0  0
   20.2484   20.6312   20.6317 H   0  0  0  0  0  0  0  0  0  0  0  0
   20.1458   18.7373   21.6932 C   0  0  0  0  0  0  0  0  0  0  0  0
   19.7434   17.7294   21.5212 H   0  0  0  0  0  0  0  0  0  0  0  0
   21.2332   18.6313   21.8094 H   0  0  0  0  0  0  0  0  0  0  0  0
   19.5410   19.3233   22.9876 C   0  0  0  0  0  0  0  0  0  0  0  0
   18.4531   19.4285   22.8737 H   0  0  0  0  0  0  0  0  0  0  0  0
   19.9426   20.3314   23.1611 H   0  0  0  0  0  0  0  0  0  0  0  0
   19.8425   18.4339   24.2189 C   0  0  0  0  0  0  0  0  0  0  0  0
   19.4361   17.4267   24.0671 H   0  0  0  0  0  0  0  0  0  0  0  0
   20.9257   18.3296   24.3547 H   0  0  0  0  0  0  0  0  0  0  0  0
   19.2549   18.9920   25.5101 C   0  0  0  0  0  0  0  0  0  0  0  0
   19.9341   19.7574   26.1654 O   0  5  0  0  0  0  0  0  0  0  0  0
   18.1264   18.6617   25.8165 O   0  0  0  0  0  0  0  0  0  0  0  0
  1  2  1  0  0  0  0
  1  3  1  0  0  0  0
  1  4  2  0  0  0  0
  4  5  1  0  0  0  0
  4  6  1  0  0  0  0
  6  7  1  0  0  0  0
  6  8  1  0  0  0  0
  6  9  1  0  0  0  0
  9 10  1  0  0  0  0
  9 11  1  0  0  0  0
  9 12  1  0  0  0  0
 12 13  1  0  0  0  0
 12 14  1  0  0  0  0
 12 15  1  0  0  0  0
 15 16  1  0  0  0  0
 15 17  1  0  0  0  0
 15 18  1  0  0  0  0
 18 19  1  0  0  0  0
 18 20  2  0  0  0  0
M  END
> <VM2 Rank>
2

> <Conf_Id>
322

> <Probability>
13.47

> <Sum Probability>
27.11

> <Delta G>
0.007

> <G>
-21.882

> <E>
-36.774

> <-TS>
14.892

> <U+W>
-52.870

> <U>
6.632

> <W>
-59.503

> <W(PB)>
-61.758

> <W(SA)>
2.255

> <Valence>
9.076

> <Coulomb>
-3.008

> <VdW>
0.564

> <VdW6>
-5.773

> <VdW12>
6.337

> <Bond>
0.084

> <Angle>
2.239

> <Pdih>
6.752

> <Idih>
0.001

> <Tether>
0.000

$$$$
VeraChem MOL file


 20 19  0  0  0  0  0  0  0  0999 V2000     
   20.9236   18.8104   18.3944 C   0  0  0  0  0  0  0  0  0  0  0  0
   20.9612   18.2700   17.4500 H   0  0  0  0  0  0  0  0  0  0  0  0
   21.8310   19.3182   18.7175 H   0  0  0  0  0  0  0  0  0  0  0  0
   19.8069   18.8443   19.1262 C   0  0  0  0  0  0  0  0  0  0  0  0
   18.9095   18.3285   18.7851 H   0  0  0  0  0  0  0  0  0  0  0  0
   19.6795   19.5735   20.4451 C   0  0  0  0  0  0  0  0  0  0  0  0
   18.7668   20.1843   20.4406 H   0  0  0  0  0  0  0  0  0  0  0  0
   20.5221   20.2653   20.5801 H   0  0  0  0  0  0  0  0  0  0  0  0
   19.6336   18.5828   21.6272 C   0  0  0  0  0  0  0  0  0  0  0  0
   18.7882   17.8938   21.4941 H   0  0  0  0  0  0  0  0  0  0  0  0
   20.5468   17.9717   21.6248 H   0  0  0  0  0  0  0  0  0  0  0  0
   19.5003   19.3110   22.9823 C   0  0  0  0  0  0  0  0  0  0  0  0
   18.5874   19.9227   22.9862 H   0  0  0  0  0  0  0  0  0  0  0  0
   20.3461   19.9994   23.1179 H   0  0  0  0  0  0  0  0  0  0  0  0
   19.4549   18.3170   24.1689 C   0  0  0  0  0  0  0  0  0  0  0  0
   18.6074   17.6304   24.0557 H   0  0  0  0  0  0  0  0  0  0  0  0
   20.3662   17.7072   24.1871 H   0  0  0  0  0  0  0  0  0  0  0  0
   19.3237   19.0127   25.5190 C   0  0  0  0  0  0  0  0  0  0  0  0
   20.3415   19.3292   26.1025 O   0  5  0  0  0  0  0  0  0  0  0  0
   18.2069   19.2371   25.9424 O   0  0  0  0  0  0  0  0  0  0  0  0
  1  2  1  0  0  0  0
  1  3  1  0  0  0  0
  1  4  2  0  0  0  0
  4  5  1  0  0  0  0
  4  6  1  0  0  0  0
  6  7  1  0  0  0  0
  6  8  1  0  0  0  0
  6  9  1  0  0  0  0
  9 10  1  0  0  0  0
  9 11  1  0  0  0  0
  9 12  1  0  0  0  0
 12 13  1  0  0  0  0
 12 14  1  0  0  0  0
 12 15  1  0  0  0  0
 15 16  1  0  0  0  0
 15 17  1  0  0  0  0
 15 18  1  0  0  0  0
 18 19  1  0  0  0  0
 18 20  2  0  0  0  0
M  END
> <VM2 Rank>
3

> <Conf_Id>
710

> <Probability>
12.22

> <Sum Probability>
39.32

> <Delta G>
0.065

> <G>
-21.824

> <E>
-36.715

> <-TS>
14.892

> <U+W>
-52.812

> <U>
6.632

> <W>
-59.444

> <W(PB)>
-61.727

> <W(SA)>
2.283

> <Valence>
9.076

> <Coulomb>
-3.008

> <VdW>
0.564

> <VdW6>
-5.773

> <VdW12>
6.337

> <Bond>
0.084

> <Angle>
2.239

> <Pdih>
6.752

> <Idih>
0.001

> <Tether>
0.000

$$$$
VeraChem MOL file


 20 19  0  0  0  0  0  0  0  0999 V2000     
   19.2310   18.4038   18.7285 C   0  0  0  0  0  0  0  0  0  0  0  0
   18.2506   18.2556   18.2789 H   0  0  0  0  0  0  0  0  0  0  0  0
   20.0633   17.8372   18.3140 H   0  0  0  0  0  0  0  0  0  0  0  0
   19.4013   19.2463   19.7507 C   0  0  0  0  0  0  0  0  0  0  0  0
   18.5551   19.8059   20.1483 H   0  0  0  0  0  0  0  0  0  0  0  0
   20.7334   19.5075   20.4208 C   0  0  0  0  0  0  0  0  0  0  0  0
   20.8635   20.5852   20.5874 H   0  0  0  0  0  0  0  0  0  0  0  0
   21.5500   19.1989   19.7542 H   0  0  0  0  0  0  0  0  0  0  0  0
   20.8758   18.7515   21.7610 C   0  0  0  0  0  0  0  0  0  0  0  0
   20.7291   17.6760   21.5905 H   0  0  0  0  0  0  0  0  0  0  0  0
   21.9037   18.8743   22.1288 H   0  0  0  0  0  0  0  0  0  0  0  0
   19.8878   19.2504   22.8405 C   0  0  0  0  0  0  0  0  0  0  0  0
   18.8540   19.0972   22.5022 H   0  0  0  0  0  0  0  0  0  0  0  0
   20.0180   20.3310   22.9911 H   0  0  0  0  0  0  0  0  0  0  0  0
   20.0917   18.5178   24.1895 C   0  0  0  0  0  0  0  0  0  0  0  0
   19.9532   17.4379   24.0582 H   0  0  0  0  0  0  0  0  0  0  0  0
   21.1144   18.6719   24.5539 H   0  0  0  0  0  0  0  0  0  0  0  0
   19.1276   18.9910   25.2714 C   0  0  0  0  0  0  0  0  0  0  0  0
   19.4623   19.9294   25.9672 O   0  5  0  0  0  0  0  0  0  0  0  0
   18.0601   18.4202   25.3784 O   0  0  0  0  0  0  0  0  0  0  0  0
  1  2  1  0  0  0  0
  1  3  1  0  0  0  0
  1  4  2  0  0  0  0
  4  5  1  0  0  0  0
  4  6  1  0  0  0  0
  6  7  1  0  0  0  0
  6  8  1  0  0  0  0
  6  9  1  0  0  0  0
  9 10  1  0  0  0  0
  9 11  1  0  0  0  0
  9 12  1  0  0  0  0
 12 13  1  0  0  0  0
 12 14  1  0  0  0  0
 12 15  1  0  0  0  0
 15 16  1  0  0  0  0
 15 17  1  0  0  0  0
 15 18  1  0  0  0  0
 18 19  1  0  0  0  0
 18 20  2  0  0  0  0
M  END
> <VM2 Rank>
4

> <Conf_Id>
708

> <Probability>
4.87

> <Sum Probability>
44.19

> <Delta G>
0.614

> <G>
-21.276

> <E>
-36.308

> <-TS>
15.033

> <U+W>
-52.405

> <U>
7.828

> <W>
-60.233

> <W(PB)>
-62.486

> <W(SA)>
2.254

> <Valence>
9.300

> <Coulomb>
-2.080

> <VdW>
0.608

> <VdW6>
-6.341

> <VdW12>
6.949

> <Bond>
0.103

> <Angle>
2.334

> <Pdih>
6.862

> <Idih>
0.001

> <Tether>
0.000

$$$$
VeraChem MOL file


 20 19  0  0  0  0  0  0  0  0999 V2000     
   21.2428   19.0105   18.9880 C   0  0  0  0  0  0  0  0  0  0  0  0
   20.9773   18.1128   18.4319 H   0  0  0  0  0  0  0  0  0  0  0  0
   22.2182   19.4520   18.7906 H   0  0  0  0  0  0  0  0  0  0  0  0
   20.4088   19.5501   19.8806 C   0  0  0  0  0  0  0  0  0  0  0  0
   20.6933   20.4507   20.4241 H   0  0  0  0  0  0  0  0  0  0  0  0
   19.0371   18.9960   20.2020 C   0  0  0  0  0  0  0  0  0  0  0  0
   18.7024   18.3402   19.3869 H   0  0  0  0  0  0  0  0  0  0  0  0
   18.3067   19.8142   20.2576 H   0  0  0  0  0  0  0  0  0  0  0  0
   19.0218   18.1925   21.5219 C   0  0  0  0  0  0  0  0  0  0  0  0
   18.0410   17.7096   21.6305 H   0  0  0  0  0  0  0  0  0  0  0  0
   19.7653   17.3854   21.4662 H   0  0  0  0  0  0  0  0  0  0  0  0
   19.2948   19.0715   22.7640 C   0  0  0  0  0  0  0  0  0  0  0  0
   18.5665   19.8933   22.8039 H   0  0  0  0  0  0  0  0  0  0  0  0
   20.2900   19.5302   22.6875 H   0  0  0  0  0  0  0  0  0  0  0  0
   19.2152   18.2535   24.0764 C   0  0  0  0  0  0  0  0  0  0  0  0
   18.2223   17.7999   24.1808 H   0  0  0  0  0  0  0  0  0  0  0  0
   19.9453   17.4355   24.0572 H   0  0  0  0  0  0  0  0  0  0  0  0
   19.4824   19.0980   25.3172 C   0  0  0  0  0  0  0  0  0  0  0  0
   20.6283   19.1944   25.7098 O   0  5  0  0  0  0  0  0  0  0  0  0
   18.5398   19.6515   25.8480 O   0  0  0  0  0  0  0  0  0  0  0  0
  1  2  1  0  0  0  0
  1  3  1  0  0  0  0
  1  4  2  0  0  0  0
  4  5  1  0  0  0  0
  4  6  1  0  0  0  0
  6  7  1  0  0  0  0
  6  8  1  0  0  0  0
  6  9  1  0  0  0  0
  9 10  1  0  0  0  0
  9 11  1  0  0  0  0
  9 12  1  0  0  0  0
 12 13  1  0  0  0  0
 12 14  1  0  0  0  0
 12 15  1  0  0  0  0
 15 16  1  0  0  0  0
 15 17  1  0  0  0  0
 15 18  1  0  0  0  0
 18 19  1  0  0  0  0
 18 20  2  0  0  0  0
M  END
> <VM2 Rank>
5

> <Conf_Id>
132

> <Probability>
4.68

> <Sum Probability>
48.88

> <Delta G>
0.637

> <G>
-21.252

> <E>
-36.284

> <-TS>
15.032

> <U+W>
-52.381

> <U>
7.828

> <W>
-60.209

> <W(PB)>
-62.451

> <W(SA)>
2.242

> <Valence>
9.300

> <Coulomb>
-2.080

> <VdW>
0.608

> <VdW6>
-6.341

> <VdW12>
6.949

> <Bond>
0.103

> <Angle>
2.334

> <Pdih>
6.862

> <Idih>
0.001

> <Tether>
0.000

$$$$
VeraChem MOL file


 20 19  0  0  0  0  0  0  0  0999 V2000     
   19.7219   18.9160   18.3063 C   0  0  0  0  0  0  0  0  0  0  0  0
   20.2157   18.8210   17.3407 H   0  0  0  0  0  0  0  0  0  0  0  0
   18.7434   19.3934   18.3238 H   0  0  0  0  0  0  0  0  0  0  0  0
   20.2984   18.4655   19.4235 C   0  0  0  0  0  0  0  0  0  0  0  0
   21.2789   17.9914   19.3844 H   0  0  0  0  0  0  0  0  0  0  0  0
   19.6742   18.5615   20.7979 C   0  0  0  0  0  0  0  0  0  0  0  0
   19.7368   17.5831   21.2907 H   0  0  0  0  0  0  0  0  0  0  0  0
   18.6070   18.8074   20.7138 H   0  0  0  0  0  0  0  0  0  0  0  0
   20.3832   19.6338   21.6555 C   0  0  0  0  0  0  0  0  0  0  0  0
   21.4373   19.3577   21.7953 H   0  0  0  0  0  0  0  0  0  0  0  0
   20.3822   20.5845   21.1045 H   0  0  0  0  0  0  0  0  0  0  0  0
   19.7173   19.8615   23.0335 C   0  0  0  0  0  0  0  0  0  0  0  0
   18.6663   20.1507   22.8948 H   0  0  0  0  0  0  0  0  0  0  0  0
   20.2100   20.7110   23.5266 H   0  0  0  0  0  0  0  0  0  0  0  0
   19.7958   18.6281   23.9702 C   0  0  0  0  0  0  0  0  0  0  0  0
   19.2358   17.7860   23.5484 H   0  0  0  0  0  0  0  0  0  0  0  0
   20.8372   18.3036   24.0824 H   0  0  0  0  0  0  0  0  0  0  0  0
   19.2353   18.9075   25.3601 C   0  0  0  0  0  0  0  0  0  0  0  0
   19.9948   19.3259   26.2114 O   0  5  0  0  0  0  0  0  0  0  0  0
   18.0500   18.7181   25.5495 O   0  0  0  0  0  0  0  0  0  0  0  0
  1  2  1  0  0  0  0
  1  3  1  0  0  0  0
  1  4  2  0  0  0  0
  4  5  1  0  0  0  0
  4  6  1  0  0  0  0
  6  7  1  0  0  0  0
  6  8  1  0  0  0  0
  6  9  1  0  0  0  0
  9 10  1  0  0  0  0
  9 11  1  0  0  0  0
  9 12  1  0  0  0  0
 12 13  1  0  0  0  0
 12 14  1  0  0  0  0
 12 15  1  0  0  0  0
 15 16  1  0  0  0  0
 15 17  1  0  0  0  0
 15 18  1  0  0  0  0
 18 19  1  0  0  0  0
 18 20  2  0  0  0  0
M  END
> <VM2 Rank>
6

> <Conf_Id>
217

> <Probability>
3.97

> <Sum Probability>
52.84

> <Delta G>
0.736

> <G>
-21.153

> <E>
-36.159

> <-TS>
15.006

> <U+W>
-52.256

> <U>
7.491

> <W>
-59.747

> <W(PB)>
-61.973

> <W(SA)>
2.226

> <Valence>
9.604

> <Coulomb>
-2.799

> <VdW>
0.686

> <VdW6>
-6.435

> <VdW12>
7.121

> <Bond>
0.124

> <Angle>
2.493

> <Pdih>
6.986

> <Idih>
0.001

> <Tether>
0.000

$$$$
VeraChem MOL file


 20 19  0  0  0  0  0  0  0  0999 V2000     
   18.6393   19.5604   19.3943 C   0  0  0  0  0  0  0  0  0  0  0  0
   18.7039   20.6145   19.6592 H   0  0  0  0  0  0  0  0  0  0  0  0
   17.7307   19.2230   18.8985 H   0  0  0  0  0  0  0  0  0  0  0  0
   19.6322   18.7103   19.6689 C   0  0  0  0  0  0  0  0  0  0  0  0
   19.5465   17.6584   19.3975 H   0  0  0  0  0  0  0  0  0  0  0  0
   20.9227   19.1047   20.3552 C   0  0  0  0  0  0  0  0  0  0  0  0
   21.0140   20.1981   20.4080 H   0  0  0  0  0  0  0  0  0  0  0  0
   21.7711   18.7519   19.7539 H   0  0  0  0  0  0  0  0  0  0  0  0
   21.0365   18.5083   21.7762 C   0  0  0  0  0  0  0  0  0  0  0  0
   20.9444   17.4148   21.7233 H   0  0  0  0  0  0  0  0  0  0  0  0
   22.0395   18.7209   22.1708 H   0  0  0  0  0  0  0  0  0  0  0  0
   19.9773   19.0767   22.7481 C   0  0  0  0  0  0  0  0  0  0  0  0
   18.9686   18.8471   22.3780 H   0  0  0  0  0  0  0  0  0  0  0  0
   20.0600   20.1717   22.7864 H   0  0  0  0  0  0  0  0  0  0  0  0
   20.1376   18.5005   24.1765 C   0  0  0  0  0  0  0  0  0  0  0  0
   20.0449   17.4080   24.1563 H   0  0  0  0  0  0  0  0  0  0  0  0
   21.1342   18.7344   24.5699 H   0  0  0  0  0  0  0  0  0  0  0  0
   19.1032   19.0462   25.1544 C   0  0  0  0  0  0  0  0  0  0  0  0
   19.3629   20.0730   25.7501 O   0  5  0  0  0  0  0  0  0  0  0  0
   18.0593   18.4379   25.2844 O   0  0  0  0  0  0  0  0  0  0  0  0
  1  2  1  0  0  0  0
  1  3  1  0  0  0  0
  1  4  2  0  0  0  0
  4  5  1  0  0  0  0
  4  6  1  0  0  0  0
  6  7  1  0  0  0  0
  6  8  1  0  0  0  0
  6  9  1  0  0  0  0
  9 10  1  0  0  0  0
  9 11  1  0  0  0  0
  9 12  1  0  0  0  0
 12 13  1  0  0  0  0
 12 14  1  0  0  0  0
 12 15  1  0  0  0  0
 15 16  1  0  0  0  0
 15 17  1  0  0  0  0
 15 18  1  0  0  0  0
 18 19  1  0  0  0  0
 18 20  2  0  0  0  0
M  END
> <VM2 Rank>
7

> <Conf_Id>
519

> <Probability>
3.88

> <Sum Probability>
56.72

> <Delta G>
0.749

> <G>
-21.140

> <E>
-36.252

> <-TS>
15.112

> <U+W>
-52.348

> <U>
8.428

> <W>
-60.776

> <W(PB)>
-62.984

> <W(SA)>
2.208

> <Valence>
9.231

> <Coulomb>
-1.304

> <VdW>
0.502

> <VdW6>
-6.515

> <VdW12>
7.017

> <Bond>
0.103

> <Angle>
2.328

> <Pdih>
6.799

> <Idih>
0.000

> <Tether>
0.000

$$$$
VeraChem MOL file


 20 19  0  0  0  0  0  0  0  0999 V2000     
   20.3965   17.5036   19.6232 C   0  0  0  0  0  0  0  0  0  0  0  0
   19.9724   16.5991   19.1906 H   0  0  0  0  0  0  0  0  0  0  0  0
   21.4119   17.4449   20.0117 H   0  0  0  0  0  0  0  0  0  0  0  0
   19.6938   18.6382   19.6769 C   0  0  0  0  0  0  0  0  0  0  0  0
   18.6779   18.6750   19.2846 H   0  0  0  0  0  0  0  0  0  0  0  0
   20.2150   19.9331   20.2631 C   0  0  0  0  0  0  0  0  0  0  0  0
   20.0721   20.7406   19.5327 H   0  0  0  0  0  0  0  0  0  0  0  0
   21.2963   19.8677   20.4448 H   0  0  0  0  0  0  0  0  0  0  0  0
   19.4934   20.3144   21.5753 C   0  0  0  0  0  0  0  0  0  0  0  0
   19.8215   21.3170   21.8820 H   0  0  0  0  0  0  0  0  0  0  0  0
   18.4118   20.3792   21.3936 H   0  0  0  0  0  0  0  0  0  0  0  0
   19.7731   19.3157   22.7215 C   0  0  0  0  0  0  0  0  0  0  0  0
   20.8562   19.2397   22.8901 H   0  0  0  0  0  0  0  0  0  0  0  0
   19.4247   18.3131   22.4374 H   0  0  0  0  0  0  0  0  0  0  0  0
   19.0781   19.7406   24.0386 C   0  0  0  0  0  0  0  0  0  0  0  0
   19.4262   20.7336   24.3475 H   0  0  0  0  0  0  0  0  0  0  0  0
   17.9939   19.8087   23.8892 H   0  0  0  0  0  0  0  0  0  0  0  0
   19.3389   18.7703   25.1851 C   0  0  0  0  0  0  0  0  0  0  0  0
   20.3232   18.9491   25.8750 O   0  5  0  0  0  0  0  0  0  0  0  0
   18.5590   17.8530   25.3493 O   0  0  0  0  0  0  0  0  0  0  0  0
  1  2  1  0  0  0  0
  1  3  1  0  0  0  0
  1  4  2  0  0  0  0
  4  5  1  0  0  0  0
  4  6  1  0  0  0  0
  6  7  1  0  0  0  0
  6  8  1  0  0  0  0
  6  9  1  0  0  0  0
  9 10  1  0  0  0  0
  9 11  1  0  0  0  0
  9 12  1  0  0  0  0
 12 13  1  0  0  0  0
 12 14  1  0  0  0  0
 12 15  1  0  0  0  0
 15 16  1  0  0  0  0
 15 17  1  0  0  0  0
 15 18  1  0  0  0  0
 18 19  1  0  0  0  0
 18 20  2  0  0  0  0
M  END
> <VM2 Rank>
8

> <Conf_Id>
556

> <Probability>
3.81

> <Sum Probability>
60.53

> <Delta G>
0.761

> <G>
-21.129

> <E>
-36.240

> <-TS>
15.112

> <U+W>
-52.336

> <U>
8.428

> <W>
-60.765

> <W(PB)>
-62.976

> <W(SA)>
2.211

> <Valence>
9.230

> <Coulomb>
-1.304

> <VdW>
0.501

> <VdW6>
-6.515

> <VdW12>
7.017

> <Bond>
0.103

> <Angle>
2.328

> <Pdih>
6.799

> <Idih>
0.000

> <Tether>
0.000

$$$$
VeraChem MOL file


 20 19  0  0  0  0  0  0  0  0999 V2000     
   19.8315   18.5361   18.3333 C   0  0  0  0  0  0  0  0  0  0  0  0
   19.2550   17.6198   18.4500 H   0  0  0  0  0  0  0  0  0  0  0  0
   20.2358   18.7512   17.3456 H   0  0  0  0  0  0  0  0  0  0  0  0
   20.0389   19.3653   19.3595 C   0  0  0  0  0  0  0  0  0  0  0  0
   20.6196   20.2771   19.2217 H   0  0  0  0  0  0  0  0  0  0  0  0
   19.5092   19.1338   20.7572 C   0  0  0  0  0  0  0  0  0  0  0  0
   18.7385   18.3512   20.7463 H   0  0  0  0  0  0  0  0  0  0  0  0
   19.0250   20.0512   21.1150 H   0  0  0  0  0  0  0  0  0  0  0  0
   20.6457   18.7233   21.7203 C   0  0  0  0  0  0  0  0  0  0  0  0
   21.1695   17.8541   21.2988 H   0  0  0  0  0  0  0  0  0  0  0  0
   21.3871   19.5316   21.7830 H   0  0  0  0  0  0  0  0  0  0  0  0
   20.1503   18.3598   23.1404 C   0  0  0  0  0  0  0  0  0  0  0  0
   20.9993   17.9737   23.7215 H   0  0  0  0  0  0  0  0  0  0  0  0
   19.4185   17.5424   23.0805 H   0  0  0  0  0  0  0  0  0  0  0  0
   19.5278   19.5574   23.9041 C   0  0  0  0  0  0  0  0  0  0  0  0
   20.2338   20.3959   23.9335 H   0  0  0  0  0  0  0  0  0  0  0  0
   18.6229   19.9110   23.3972 H   0  0  0  0  0  0  0  0  0  0  0  0
   19.1486   19.2081   25.3387 C   0  0  0  0  0  0  0  0  0  0  0  0
   19.9819   19.3711   26.2082 O   0  5  0  0  0  0  0  0  0  0  0  0
   18.0371   18.7631   25.5463 O   0  0  0  0  0  0  0  0  0  0  0  0
  1  2  1  0  0  0  0
  1  3  1  0  0  0  0
  1  4  2  0  0  0  0
  4  5  1  0  0  0  0
  4  6  1  0  0  0  0
  6  7  1  0  0  0  0
  6  8  1  0  0  0  0
  6  9  1  0  0  0  0
  9 10  1  0  0  0  0
  9 11  1  0  0  0  0
  9 12  1  0  0  0  0
 12 13  1  0  0  0  0
 12 14  1  0  0  0  0
 12 15  1  0  0  0  0
 15 16  1  0  0  0  0
 15 17  1  0  0  0  0
 15 18  1  0  0  0  0
 18 19  1  0  0  0  0
 18 20  2  0  0  0  0
M  END
> <VM2 Rank>
9

> <Conf_Id>
630

> <Probability>
3.74

> <Sum Probability>
64.27

> <Delta G>
0.771

> <G>
-21.119

> <E>
-36.125

> <-TS>
15.007

> <U+W>
-52.222

> <U>
7.491

> <W>
-59.713

> <W(PB)>
-61.949

> <W(SA)>
2.236

> <Valence>
9.604

> <Coulomb>
-2.798

> <VdW>
0.686

> <VdW6>
-6.435

> <VdW12>
7.121

> <Bond>
0.124

> <Angle>
2.493

> <Pdih>
6.986

> <Idih>
0.001

> <Tether>
0.000

$$$$
VeraChem MOL file


 20 19  0  0  0  0  0  0  0  0999 V2000     
   20.7498   18.7252   18.7013 C   0  0  0  0  0  0  0  0  0  0  0  0
   20.8794   18.5155   17.6409 H   0  0  0  0  0  0  0  0  0  0  0  0
   21.6421   19.0000   19.2598 H   0  0  0  0  0  0  0  0  0  0  0  0
   19.5428   18.6403   19.2720 C   0  0  0  0  0  0  0  0  0  0  0  0
   18.6862   18.3583   18.6601 H   0  0  0  0  0  0  0  0  0  0  0  0
   19.2063   18.9026   20.7306 C   0  0  0  0  0  0  0  0  0  0  0  0
   18.7971   17.9807   21.1623 H   0  0  0  0  0  0  0  0  0  0  0  0
   18.3932   19.6393   20.7762 H   0  0  0  0  0  0  0  0  0  0  0  0
   20.3899   19.4063   21.5934 C   0  0  0  0  0  0  0  0  0  0  0  0
   21.1833   18.6468   21.6152 H   0  0  0  0  0  0  0  0  0  0  0  0
   20.8205   20.3000   21.1211 H   0  0  0  0  0  0  0  0  0  0  0  0
   19.9851   19.7700   23.0421 C   0  0  0  0  0  0  0  0  0  0  0  0
   19.1955   20.5340   23.0270 H   0  0  0  0  0  0  0  0  0  0  0  0
   20.8489   20.2275   23.5441 H   0  0  0  0  0  0  0  0  0  0  0  0
   19.5122   18.5524   23.8783 C   0  0  0  0  0  0  0  0  0  0  0  0
   18.5948   18.1263   23.4570 H   0  0  0  0  0  0  0  0  0  0  0  0
   20.2744   17.7642   23.8638 H   0  0  0  0  0  0  0  0  0  0  0  0
   19.2305   18.9108   25.3330 C   0  0  0  0  0  0  0  0  0  0  0  0
   20.1422   18.8247   26.1319 O   0  5  0  0  0  0  0  0  0  0  0  0
   18.1122   19.2857   25.6254 O   0  0  0  0  0  0  0  0  0  0  0  0
  1  2  1  0  0  0  0
  1  3  1  0  0  0  0
  1  4  2  0  0  0  0
  4  5  1  0  0  0  0
  4  6  1  0  0  0  0
  6  7  1  0  0  0  0
  6  8  1  0  0  0  0
  6  9  1  0  0  0  0
  9 10  1  0  0  0  0
  9 11  1  0  0  0  0
  9 12  1  0  0  0  0
 12 13  1  0  0  0  0
 12 14  1  0  0  0  0
 12 15  1  0  0  0  0
 15 16  1  0  0  0  0
 15 17  1  0  0  0  0
 15 18  1  0  0  0  0
 18 19  1  0  0  0  0
 18 20  2  0  0  0  0
M  END
> <VM2 Rank>
10

> <Conf_Id>
143

> <Probability>
3.66

> <Sum Probability>
67.92

> <Delta G>
0.785

> <G>
-21.105

> <E>
-36.460

> <-TS>
15.356

> <U+W>
-52.557

> <U>
7.428

> <W>
-59.984

> <W(PB)>
-62.182

> <W(SA)>
2.198

> <Valence>
8.548

> <Coulomb>
-2.540

> <VdW>
1.420

> <VdW6>
-7.116

> <VdW12>
8.535

> <Bond>
0.184

> <Angle>
3.112

> <Pdih>
5.251

> <Idih>
0.001

> <Tether>
0.000

$$$$
VeraChem MOL file


 20 19  0  0  0  0  0  0  0  0999 V2000     
   20.5530   17.9816   18.7232 C   0  0  0  0  0  0  0  0  0  0  0  0
   20.4878   17.8983   17.6397 H   0  0  0  0  0  0  0  0  0  0  0  0
   20.8522   17.0930   19.2769 H   0  0  0  0  0  0  0  0  0  0  0  0
   20.2735   19.1299   19.3452 C   0  0  0  0  0  0  0  0  0  0  0  0
   19.9752   20.0077   18.7722 H   0  0  0  0  0  0  0  0  0  0  0  0
   20.3432   19.3212   20.8440 C   0  0  0  0  0  0  0  0  0  0  0  0
   20.8983   20.2411   21.0708 H   0  0  0  0  0  0  0  0  0  0  0  0
   20.9013   18.4933   21.2998 H   0  0  0  0  0  0  0  0  0  0  0  0
   18.9281   19.4047   21.4593 C   0  0  0  0  0  0  0  0  0  0  0  0
   18.3601   20.1884   20.9394 H   0  0  0  0  0  0  0  0  0  0  0  0
   18.3925   18.4625   21.2787 H   0  0  0  0  0  0  0  0  0  0  0  0
   18.9308   19.7207   22.9740 C   0  0  0  0  0  0  0  0  0  0  0  0
   17.8939   19.8752   23.3032 H   0  0  0  0  0  0  0  0  0  0  0  0
   19.4579   20.6676   23.1551 H   0  0  0  0  0  0  0  0  0  0  0  0
   19.5656   18.6008   23.8389 C   0  0  0  0  0  0  0  0  0  0  0  0
   19.0763   17.6411   23.6342 H   0  0  0  0  0  0  0  0  0  0  0  0
   20.6283   18.4824   23.5992 H   0  0  0  0  0  0  0  0  0  0  0  0
   19.4563   18.8778   25.3340 C   0  0  0  0  0  0  0  0  0  0  0  0
   20.3462   19.5109   25.8669 O   0  5  0  0  0  0  0  0  0  0  0  0
   18.4743   18.4704   25.9225 O   0  0  0  0  0  0  0  0  0  0  0  0
  1  2  1  0  0  0  0
  1  3  1  0  0  0  0
  1  4  2  0  0  0  0
  4  5  1  0  0  0  0
  4  6  1  0  0  0  0
  6  7  1  0  0  0  0
  6  8  1  0  0  0  0
  6  9  1  0  0  0  0
  9 10  1  0  0  0  0
  9 11  1  0  0  0  0
  9 12  1  0  0  0  0
 12 13  1  0  0  0  0
 12 14  1  0  0  0  0
 12 15  1  0  0  0  0
 15 16  1  0  0  0  0
 15 17  1  0  0  0  0
 15 18  1  0  0  0  0
 18 19  1  0  0  0  0
 18 20  2  0  0  0  0
M  END
> <VM2 Rank>
11

> <Conf_Id>
571

> <Probability>
3.43

> <Sum Probability>
71.35

> <Delta G>
0.823

> <G>
-21.066

> <E>
-36.062

> <-TS>
14.996

> <U+W>
-52.158

> <U>
7.601

> <W>
-59.760

> <W(PB)>
-62.008

> <W(SA)>
2.248

> <Valence>
9.602

> <Coulomb>
-2.686

> <VdW>
0.685

> <VdW6>
-6.453

> <VdW12>
7.139

> <Bond>
0.125

> <Angle>
2.485

> <Pdih>
6.991

> <Idih>
0.001

> <Tether>
0.000

$$$$
VeraChem MOL file


 20 19  0  0  0  0  0  0  0  0999 V2000     
   20.4091   17.9383   18.7046 C   0  0  0  0  0  0  0  0  0  0  0  0
   20.5236   16.9939   19.2344 H   0  0  0  0  0  0  0  0  0  0  0  0
   20.7592   17.9804   17.6746 H   0  0  0  0  0  0  0  0  0  0  0  0
   19.8637   19.0063   19.2923 C   0  0  0  0  0  0  0  0  0  0  0  0
   19.7588   19.9425   18.7443 H   0  0  0  0  0  0  0  0  0  0  0  0
   19.3544   19.0228   20.7165 C   0  0  0  0  0  0  0  0  0  0  0  0
   19.2497   17.9949   21.0867 H   0  0  0  0  0  0  0  0  0  0  0  0
   18.3532   19.4731   20.7427 H   0  0  0  0  0  0  0  0  0  0  0  0
   20.3056   19.8202   21.6369 C   0  0  0  0  0  0  0  0  0  0  0  0
   21.2924   19.3372   21.6527 H   0  0  0  0  0  0  0  0  0  0  0  0
   20.4574   20.8210   21.2099 H   0  0  0  0  0  0  0  0  0  0  0  0
   19.7786   19.9764   23.0834 C   0  0  0  0  0  0  0  0  0  0  0  0
   18.7960   20.4681   23.0698 H   0  0  0  0  0  0  0  0  0  0  0  0
   20.4532   20.6471   23.6333 H   0  0  0  0  0  0  0  0  0  0  0  0
   19.6754   18.6340   23.8530 C   0  0  0  0  0  0  0  0  0  0  0  0
   18.9394   17.9733   23.3814 H   0  0  0  0  0  0  0  0  0  0  0  0
   20.6399   18.1126   23.8357 H   0  0  0  0  0  0  0  0  0  0  0  0
   19.2646   18.8200   25.3093 C   0  0  0  0  0  0  0  0  0  0  0  0
   20.1408   18.9723   26.1375 O   0  5  0  0  0  0  0  0  0  0  0  0
   18.0788   18.8278   25.5745 O   0  0  0  0  0  0  0  0  0  0  0  0
  1  2  1  0  0  0  0
  1  3  1  0  0  0  0
  1  4  2  0  0  0  0
  4  5  1  0  0  0  0
  4  6  1  0  0  0  0
  6  7  1  0  0  0  0
  6  8  1  0  0  0  0
  6  9  1  0  0  0  0
  9 10  1  0  0  0  0
  9 11  1  0  0  0  0
  9 12  1  0  0  0  0
 12 13  1  0  0  0  0
 12 14  1  0  0  0  0
 12 15  1  0  0  0  0
 15 16  1  0  0  0  0
 15 17  1  0  0  0  0
 15 18  1  0  0  0  0
 18 19  1  0  0  0  0
 18 20  2  0  0  0  0
M  END
> <VM2 Rank>
12

> <Conf_Id>
467

> <Probability>
3.25

> <Sum Probability>
74.60

> <Delta G>
0.855

> <G>
-21.035

> <E>
-36.031

> <-TS>
14.996

> <U+W>
-52.127

> <U>
7.601

> <W>
-59.728

> <W(PB)>
-61.963

> <W(SA)>
2.235

> <Valence>
9.602

> <Coulomb>
-2.686

> <VdW>
0.685

> <VdW6>
-6.454

> <VdW12>
7.139

> <Bond>
0.125

> <Angle>
2.485

> <Pdih>
6.991

> <Idih>
0.001

> <Tether>
0.000

$$$$
VeraChem MOL file


 20 19  0  0  0  0  0  0  0  0999 V2000     
   19.8504   18.4539   18.5853 C   0  0  0  0  0  0  0  0  0  0  0  0
   18.8517   18.1586   18.8999 H   0  0  0  0  0  0  0  0  0  0  0  0
   20.1072   18.2827   17.5413 H   0  0  0  0  0  0  0  0  0  0  0  0
   20.7363   19.0002   19.4260 C   0  0  0  0  0  0  0  0  0  0  0  0
   21.7225   19.2740   19.0518 H   0  0  0  0  0  0  0  0  0  0  0  0
   20.5248   19.3002   20.9007 C   0  0  0  0  0  0  0  0  0  0  0  0
   20.7682   20.3555   21.0825 H   0  0  0  0  0  0  0  0  0  0  0  0
   21.2559   18.7222   21.4796 H   0  0  0  0  0  0  0  0  0  0  0  0
   19.0958   19.0162   21.4264 C   0  0  0  0  0  0  0  0  0  0  0  0
   18.3723   19.5619   20.8054 H   0  0  0  0  0  0  0  0  0  0  0  0
   18.8650   17.9478   21.3162 H   0  0  0  0  0  0  0  0  0  0  0  0
   18.8865   19.4388   22.9004 C   0  0  0  0  0  0  0  0  0  0  0  0
   17.8244   19.3157   23.1540 H   0  0  0  0  0  0  0  0  0  0  0  0
   19.1104   20.5083   23.0160 H   0  0  0  0  0  0  0  0  0  0  0  0
   19.7357   18.6198   23.9071 C   0  0  0  0  0  0  0  0  0  0  0  0
   19.5539   17.5470   23.7709 H   0  0  0  0  0  0  0  0  0  0  0  0
   20.8050   18.7926   23.7421 H   0  0  0  0  0  0  0  0  0  0  0  0
   19.4288   18.9706   25.3586 C   0  0  0  0  0  0  0  0  0  0  0  0
   20.0579   19.8721   25.8764 O   0  5  0  0  0  0  0  0  0  0  0  0
   18.5549   18.3463   25.9271 O   0  0  0  0  0  0  0  0  0  0  0  0
  1  2  1  0  0  0  0
  1  3  1  0  0  0  0
  1  4  2  0  0  0  0
  4  5  1  0  0  0  0
  4  6  1  0  0  0  0
  6  7  1  0  0  0  0
  6  8  1  0  0  0  0
  6  9  1  0  0  0  0
  9 10  1  0  0  0  0
  9 11  1  0  0  0  0
  9 12  1  0  0  0  0
 12 13  1  0  0  0  0
 12 14  1  0  0  0  0
 12 15  1  0  0  0  0
 15 16  1  0  0  0  0
 15 17  1  0  0  0  0
 15 18  1  0  0  0  0
 18 19  1  0  0  0  0
 18 20  2  0  0  0  0
M  END
> <VM2 Rank>
13

> <Conf_Id>
738

> <Probability>
3.03

> <Sum Probability>
77.63

> <Delta G>
0.897

> <G>
-20.992

> <E>
-36.350

> <-TS>
15.357

> <U+W>
-52.446

> <U>
7.428

> <W>
-59.874

> <W(PB)>
-62.078

> <W(SA)>
2.204

> <Valence>
8.548

> <Coulomb>
-2.540

> <VdW>
1.420

> <VdW6>
-7.116

> <VdW12>
8.535

> <Bond>
0.184

> <Angle>
3.112

> <Pdih>
5.251

> <Idih>
0.001

> <Tether>
0.000

$$$$
VeraChem MOL file


 20 19  0  0  0  0  0  0  0  0999 V2000     
   19.8558   17.5665   19.8302 C   0  0  0  0  0  0  0  0  0  0  0  0
   18.9627   17.4944   20.4469 H   0  0  0  0  0  0  0  0  0  0  0  0
   20.1960   16.6518   19.3480 H   0  0  0  0  0  0  0  0  0  0  0  0
   20.5159   18.7171   19.6578 C   0  0  0  0  0  0  0  0  0  0  0  0
   21.4039   18.7278   19.0262 H   0  0  0  0  0  0  0  0  0  0  0  0
   20.1674   20.0675   20.2642 C   0  0  0  0  0  0  0  0  0  0  0  0
   19.7576   20.7103   19.4739 H   0  0  0  0  0  0  0  0  0  0  0  0
   21.0943   20.5614   20.5852 H   0  0  0  0  0  0  0  0  0  0  0  0
   19.1840   20.0452   21.4606 C   0  0  0  0  0  0  0  0  0  0  0  0
   18.9020   21.0800   21.6981 H   0  0  0  0  0  0  0  0  0  0  0  0
   18.2546   19.5347   21.1756 H   0  0  0  0  0  0  0  0  0  0  0  0
   19.7917   19.3954   22.7257 C   0  0  0  0  0  0  0  0  0  0  0  0
   20.7035   19.9354   23.0159 H   0  0  0  0  0  0  0  0  0  0  0  0
   20.0925   18.3609   22.5132 H   0  0  0  0  0  0  0  0  0  0  0  0
   18.7951   19.4012   23.9108 C   0  0  0  0  0  0  0  0  0  0  0  0
   18.4979   20.4290   24.1512 H   0  0  0  0  0  0  0  0  0  0  0  0
   17.8837   18.8544   23.6408 H   0  0  0  0  0  0  0  0  0  0  0  0
   19.3715   18.7681   25.1722 C   0  0  0  0  0  0  0  0  0  0  0  0
   19.9890   19.4793   25.9400 O   0  5  0  0  0  0  0  0  0  0  0  0
   19.2006   17.5777   25.3465 O   0  0  0  0  0  0  0  0  0  0  0  0
  1  2  1  0  0  0  0
  1  3  1  0  0  0  0
  1  4  2  0  0  0  0
  4  5  1  0  0  0  0
  4  6  1  0  0  0  0
  6  7  1  0  0  0  0
  6  8  1  0  0  0  0
  6  9  1  0  0  0  0
  9 10  1  0  0  0  0
  9 11  1  0  0  0  0
  9 12  1  0  0  0  0
 12 13  1  0  0  0  0
 12 14  1  0  0  0  0
 12 15  1  0  0  0  0
 15 16  1  0  0  0  0
 15 17  1  0  0  0  0
 15 18  1  0  0  0  0
 18 19  1  0  0  0  0
 18 20  2  0  0  0  0
M  END
> <VM2 Rank>
14

> <Conf_Id>
833

> <Probability>
1.69

> <Sum Probability>
79.32

> <Delta G>
1.245

> <G>
-20.644

> <E>
-36.100

> <-TS>
15.455

> <U+W>
-52.196

> <U>
8.773

> <W>
-60.969

> <W(PB)>
-63.158

> <W(SA)>
2.189

> <Valence>
8.762

> <Coulomb>
-1.079

> <VdW>
1.090

> <VdW6>
-7.279

> <VdW12>
8.369

> <Bond>
0.166

> <Angle>
3.199

> <Pdih>
5.396

> <Idih>
0.001

> <Tether>
0.000

$$$$
VeraChem MOL file


 20 19  0  0  0  0  0  0  0  0999 V2000     
   20.9384   17.8928   19.9698 C   0  0  0  0  0  0  0  0  0  0  0  0
   21.2743   16.9768   19.4870 H   0  0  0  0  0  0  0  0  0  0  0  0
   21.5538   18.2753   20.7810 H   0  0  0  0  0  0  0  0  0  0  0  0
   19.8203   18.5075   19.5680 C   0  0  0  0  0  0  0  0  0  0  0  0
   19.2458   18.0774   18.7479 H   0  0  0  0  0  0  0  0  0  0  0  0
   19.2250   19.7835   20.1427 C   0  0  0  0  0  0  0  0  0  0  0  0
   18.1343   19.6694   20.2035 H   0  0  0  0  0  0  0  0  0  0  0  0
   19.3894   20.5994   19.4264 H   0  0  0  0  0  0  0  0  0  0  0  0
   19.7510   20.2160   21.5338 C   0  0  0  0  0  0  0  0  0  0  0  0
   20.8443   20.3151   21.5096 H   0  0  0  0  0  0  0  0  0  0  0  0
   19.3597   21.2179   21.7572 H   0  0  0  0  0  0  0  0  0  0  0  0
   19.3202   19.2532   22.6649 C   0  0  0  0  0  0  0  0  0  0  0  0
   19.6906   18.2397   22.4614 H   0  0  0  0  0  0  0  0  0  0  0  0
   18.2239   19.1878   22.6960 H   0  0  0  0  0  0  0  0  0  0  0  0
   19.8440   19.7174   24.0462 C   0  0  0  0  0  0  0  0  0  0  0  0
   20.9390   19.7755   24.0351 H   0  0  0  0  0  0  0  0  0  0  0  0
   19.4679   20.7214   24.2764 H   0  0  0  0  0  0  0  0  0  0  0  0
   19.4303   18.7858   25.1798 C   0  0  0  0  0  0  0  0  0  0  0  0
   20.1755   17.8716   25.4724 O   0  5  0  0  0  0  0  0  0  0  0  0
   18.3665   18.9901   25.7306 O   0  0  0  0  0  0  0  0  0  0  0  0
  1  2  1  0  0  0  0
  1  3  1  0  0  0  0
  1  4  2  0  0  0  0
  4  5  1  0  0  0  0
  4  6  1  0  0  0  0
  6  7  1  0  0  0  0
  6  8  1  0  0  0  0
  6  9  1  0  0  0  0
  9 10  1  0  0  0  0
  9 11  1  0  0  0  0
  9 12  1  0  0  0  0
 12 13  1  0  0  0  0
 12 14  1  0  0  0  0
 12 15  1  0  0  0  0
 15 16  1  0  0  0  0
 15 17  1  0  0  0  0
 15 18  1  0  0  0  0
 18 19  1  0  0  0  0
 18 20  2  0  0  0  0
M  END
> <VM2 Rank>
15

> <Conf_Id>
570

> <Probability>
1.53

> <Sum Probability>
80.85

> <Delta G>
1.305

> <G>
-20.585

> <E>
-36.039

> <-TS>
15.454

> <U+W>
-52.135

> <U>
8.773

> <W>
-60.908

> <W(PB)>
-63.119

> <W(SA)>
2.212

> <Valence>
8.762

> <Coulomb>
-1.079

> <VdW>
1.090

> <VdW6>
-7.279

> <VdW12>
8.369

> <Bond>
0.166

> <Angle>
3.199

> <Pdih>
5.396

> <Idih>
0.000

> <Tether>
0.000

$$$$
VeraChem MOL file


 20 19  0  0  0  0  0  0  0  0999 V2000     
   19.5297   18.5192   18.5564 C   0  0  0  0  0  0  0  0  0  0  0  0
   18.7844   18.5318   17.7629 H   0  0  0  0  0  0  0  0  0  0  0  0
   20.3345   17.7903   18.4763 H   0  0  0  0  0  0  0  0  0  0  0  0
   19.4545   19.3650   19.5873 C   0  0  0  0  0  0  0  0  0  0  0  0
   18.6400   20.0864   19.6491 H   0  0  0  0  0  0  0  0  0  0  0  0
   20.4512   19.4066   20.7242 C   0  0  0  0  0  0  0  0  0  0  0  0
   20.7667   20.4441   20.8983 H   0  0  0  0  0  0  0  0  0  0  0  0
   21.3549   18.8416   20.4585 H   0  0  0  0  0  0  0  0  0  0  0  0
   19.8440   18.8269   22.0189 C   0  0  0  0  0  0  0  0  0  0  0  0
   18.9416   19.3951   22.2837 H   0  0  0  0  0  0  0  0  0  0  0  0
   19.5254   17.7907   21.8396 H   0  0  0  0  0  0  0  0  0  0  0  0
   20.8491   18.8650   23.1923 C   0  0  0  0  0  0  0  0  0  0  0  0
   21.1617   19.9014   23.3813 H   0  0  0  0  0  0  0  0  0  0  0  0
   21.7536   18.3080   22.9126 H   0  0  0  0  0  0  0  0  0  0  0  0
   20.2676   18.2582   24.4955 C   0  0  0  0  0  0  0  0  0  0  0  0
   19.9251   17.2319   24.3158 H   0  0  0  0  0  0  0  0  0  0  0  0
   21.0547   18.2016   25.2566 H   0  0  0  0  0  0  0  0  0  0  0  0
   19.1136   19.0595   25.0914 C   0  0  0  0  0  0  0  0  0  0  0  0
   19.3759   20.0918   25.6768 O   0  5  0  0  0  0  0  0  0  0  0  0
   17.9854   18.6257   24.9651 O   0  0  0  0  0  0  0  0  0  0  0  0
  1  2  1  0  0  0  0
  1  3  1  0  0  0  0
  1  4  2  0  0  0  0
  4  5  1  0  0  0  0
  4  6  1  0  0  0  0
  6  7  1  0  0  0  0
  6  8  1  0  0  0  0
  6  9  1  0  0  0  0
  9 10  1  0  0  0  0
  9 11  1  0  0  0  0
  9 12  1  0  0  0  0
 12 13  1  0  0  0  0
 12 14  1  0  0  0  0
 12 15  1  0  0  0  0
 15 16  1  0  0  0  0
 15 17  1  0  0  0  0
 15 18  1  0  0  0  0
 18 19  1  0  0  0  0
 18 20  2  0  0  0  0
M  END
> <VM2 Rank>
16

> <Conf_Id>
120

> <Probability>
1.45

> <Sum Probability>
82.30

> <Delta G>
1.337

> <G>
-20.552

> <E>
-35.757

> <-TS>
15.205

> <U+W>
-51.853

> <U>
8.963

> <W>
-60.816

> <W(PB)>
-63.056

> <W(SA)>
2.240

> <Valence>
9.327

> <Coulomb>
-0.781

> <VdW>
0.417

> <VdW6>
-6.635

> <VdW12>
7.051

> <Bond>
0.105

> <Angle>
2.399

> <Pdih>
6.822

> <Idih>
0.000

> <Tether>
0.000

$$$$
VeraChem MOL file


 20 19  0  0  0  0  0  0  0  0999 V2000     
   19.9491   18.1925   18.6164 C   0  0  0  0  0  0  0  0  0  0  0  0
   19.0822   18.7682   18.2960 H   0  0  0  0  0  0  0  0  0  0  0  0
   20.2707   17.3728   17.9762 H   0  0  0  0  0  0  0  0  0  0  0  0
   20.5941   18.4758   19.7511 C   0  0  0  0  0  0  0  0  0  0  0  0
   21.4592   17.8865   20.0543 H   0  0  0  0  0  0  0  0  0  0  0  0
   20.2068   19.5972   20.6892 C   0  0  0  0  0  0  0  0  0  0  0  0
   19.5070   20.2835   20.1930 H   0  0  0  0  0  0  0  0  0  0  0  0
   21.0979   20.1855   20.9461 H   0  0  0  0  0  0  0  0  0  0  0  0
   19.5612   19.0473   21.9783 C   0  0  0  0  0  0  0  0  0  0  0  0
   18.6730   18.4556   21.7170 H   0  0  0  0  0  0  0  0  0  0  0  0
   20.2639   18.3632   22.4738 H   0  0  0  0  0  0  0  0  0  0  0  0
   19.1619   20.1809   22.9498 C   0  0  0  0  0  0  0  0  0  0  0  0
   18.4720   20.8678   22.4410 H   0  0  0  0  0  0  0  0  0  0  0  0
   20.0500   20.7685   23.2216 H   0  0  0  0  0  0  0  0  0  0  0  0
   18.4834   19.6498   24.2392 C   0  0  0  0  0  0  0  0  0  0  0  0
   18.1156   20.4940   24.8342 H   0  0  0  0  0  0  0  0  0  0  0  0
   17.6103   19.0374   23.9832 H   0  0  0  0  0  0  0  0  0  0  0  0
   19.4083   18.8296   25.1339 C   0  0  0  0  0  0  0  0  0  0  0  0
   20.2339   19.4226   25.8001 O   0  5  0  0  0  0  0  0  0  0  0  0
   19.2723   17.6221   25.1499 O   0  0  0  0  0  0  0  0  0  0  0  0
  1  2  1  0  0  0  0
  1  3  1  0  0  0  0
  1  4  2  0  0  0  0
  4  5  1  0  0  0  0
  4  6  1  0  0  0  0
  6  7  1  0  0  0  0
  6  8  1  0  0  0  0
  6  9  1  0  0  0  0
  9 10  1  0  0  0  0
  9 11  1  0  0  0  0
  9 12  1  0  0  0  0
 12 13  1  0  0  0  0
 12 14  1  0  0  0  0
 12 15  1  0  0  0  0
 15 16  1  0  0  0  0
 15 17  1  0  0  0  0
 15 18  1  0  0  0  0
 18 19  1  0  0  0  0
 18 20  2  0  0  0  0
M  END
> <VM2 Rank>
17

> <Conf_Id>
488

> <Probability>
1.32

> <Sum Probability>
83.61

> <Delta G>
1.393

> <G>
-20.496

> <E>
-35.701

> <-TS>
15.205

> <U+W>
-51.797

> <U>
8.963

> <W>
-60.761

> <W(PB)>
-63.011

> <W(SA)>
2.251

> <Valence>
9.327

> <Coulomb>
-0.780

> <VdW>
0.417

> <VdW6>
-6.635

> <VdW12>
7.051

> <Bond>
0.105

> <Angle>
2.399

> <Pdih>
6.822

> <Idih>
0.000

> <Tether>
0.000

$$$$
VeraChem MOL file


 20 19  0  0  0  0  0  0  0  0999 V2000     
   19.1057   19.7951   18.8821 C   0  0  0  0  0  0  0  0  0  0  0  0
   19.3079   20.8259   19.1687 H   0  0  0  0  0  0  0  0  0  0  0  0
   18.4274   19.6314   18.0464 H   0  0  0  0  0  0  0  0  0  0  0  0
   19.6635   18.7688   19.5295 C   0  0  0  0  0  0  0  0  0  0  0  0
   19.4471   17.7443   19.2272 H   0  0  0  0  0  0  0  0  0  0  0  0
   20.6139   18.9182   20.6965 C   0  0  0  0  0  0  0  0  0  0  0  0
   20.9717   19.9546   20.7653 H   0  0  0  0  0  0  0  0  0  0  0  0
   21.4986   18.2886   20.5326 H   0  0  0  0  0  0  0  0  0  0  0  0
   19.9340   18.5208   22.0235 C   0  0  0  0  0  0  0  0  0  0  0  0
   19.0464   19.1501   22.1778 H   0  0  0  0  0  0  0  0  0  0  0  0
   19.5795   17.4830   21.9569 H   0  0  0  0  0  0  0  0  0  0  0  0
   20.8935   18.6647   23.2264 C   0  0  0  0  0  0  0  0  0  0  0  0
   21.2389   19.7051   23.3045 H   0  0  0  0  0  0  0  0  0  0  0  0
   21.7857   18.0475   23.0541 H   0  0  0  0  0  0  0  0  0  0  0  0
   20.2384   18.2392   24.5660 C   0  0  0  0  0  0  0  0  0  0  0  0
   19.8640   17.2108   24.4950 H   0  0  0  0  0  0  0  0  0  0  0  0
   20.9925   18.2483   25.3618 H   0  0  0  0  0  0  0  0  0  0  0  0
   19.0938   19.1447   25.0118 C   0  0  0  0  0  0  0  0  0  0  0  0
   19.3725   20.2311   25.4798 O   0  5  0  0  0  0  0  0  0  0  0  0
   17.9557   18.7354   24.8924 O   0  0  0  0  0  0  0  0  0  0  0  0
  1  2  1  0  0  0  0
  1  3  1  0  0  0  0
  1  4  2  0  0  0  0
  4  5  1  0  0  0  0
  4  6  1  0  0  0  0
  6  7  1  0  0  0  0
  6  8  1  0  0  0  0
  6  9  1  0  0  0  0
  9 10  1  0  0  0  0
  9 11  1  0  0  0  0
  9 12  1  0  0  0  0
 12 13  1  0  0  0  0
 12 14  1  0  0  0  0
 12 15  1  0  0  0  0
 15 16  1  0  0  0  0
 15 17  1  0  0  0  0
 15 18  1  0  0  0  0
 18 19  1  0  0  0  0
 18 20  2  0  0  0  0
M  END
> <VM2 Rank>
18

> <Conf_Id>
350

> <Probability>
1.32

> <Sum Probability>
84.93

> <Delta G>
1.394

> <G>
-20.496

> <E>
-35.703

> <-TS>
15.207

> <U+W>
-51.799

> <U>
9.411

> <W>
-61.211

> <W(PB)>
-63.462

> <W(SA)>
2.251

> <Valence>
9.329

> <Coulomb>
-0.324

> <VdW>
0.406

> <VdW6>
-6.640

> <VdW12>
7.047

> <Bond>
0.105

> <Angle>
2.401

> <Pdih>
6.823

> <Idih>
0.000

> <Tether>
0.000

$$$$
VeraChem MOL file


 20 19  0  0  0  0  0  0  0  0999 V2000     
   20.1449   17.5606   19.5008 C   0  0  0  0  0  0  0  0  0  0  0  0
   19.7149   17.0512   20.3606 H   0  0  0  0  0  0  0  0  0  0  0  0
   20.3875   16.9453   18.6360 H   0  0  0  0  0  0  0  0  0  0  0  0
   20.3731   18.8788   19.4872 C   0  0  0  0  0  0  0  0  0  0  0  0
   20.8065   19.3324   18.5961 H   0  0  0  0  0  0  0  0  0  0  0  0
   20.0888   19.8615   20.6108 C   0  0  0  0  0  0  0  0  0  0  0  0
   19.4213   20.6468   20.2318 H   0  0  0  0  0  0  0  0  0  0  0  0
   21.0238   20.3714   20.8788 H   0  0  0  0  0  0  0  0  0  0  0  0
   19.4683   19.2388   21.8833 C   0  0  0  0  0  0  0  0  0  0  0  0
   18.5219   18.7436   21.6264 H   0  0  0  0  0  0  0  0  0  0  0  0
   20.1419   18.4651   22.2771 H   0  0  0  0  0  0  0  0  0  0  0  0
   19.2102   20.3028   22.9741 C   0  0  0  0  0  0  0  0  0  0  0  0
   18.5533   21.0848   22.5697 H   0  0  0  0  0  0  0  0  0  0  0  0
   20.1551   20.7933   23.2469 H   0  0  0  0  0  0  0  0  0  0  0  0
   18.5560   19.7051   24.2468 C   0  0  0  0  0  0  0  0  0  0  0  0
   18.2901   20.5145   24.9369 H   0  0  0  0  0  0  0  0  0  0  0  0
   17.6233   19.1899   23.9871 H   0  0  0  0  0  0  0  0  0  0  0  0
   19.4536   18.7332   25.0075 C   0  0  0  0  0  0  0  0  0  0  0  0
   20.3573   19.1934   25.6772 O   0  5  0  0  0  0  0  0  0  0  0  0
   19.2187   17.5439   24.9203 O   0  0  0  0  0  0  0  0  0  0  0  0
  1  2  1  0  0  0  0
  1  3  1  0  0  0  0
  1  4  2  0  0  0  0
  4  5  1  0  0  0  0
  4  6  1  0  0  0  0
  6  7  1  0  0  0  0
  6  8  1  0  0  0  0
  6  9  1  0  0  0  0
  9 10  1  0  0  0  0
  9 11  1  0  0  0  0
  9 12  1  0  0  0  0
 12 13  1  0  0  0  0
 12 14  1  0  0  0  0
 12 15  1  0  0  0  0
 15 16  1  0  0  0  0
 15 17  1  0  0  0  0
 15 18  1  0  0  0  0
 18 19  1  0  0  0  0
 18 20  2  0  0  0  0
M  END
> <VM2 Rank>
19

> <Conf_Id>
682

> <Probability>
1.30

> <Sum Probability>
86.23

> <Delta G>
1.402

> <G>
-20.487

> <E>
-36.060

> <-TS>
15.573

> <U+W>
-52.157

> <U>
9.323

> <W>
-61.480

> <W(PB)>
-63.686

> <W(SA)>
2.205

> <Valence>
8.234

> <Coulomb>
-0.022

> <VdW>
1.111

> <VdW6>
-7.367

> <VdW12>
8.478

> <Bond>
0.158

> <Angle>
3.010

> <Pdih>
5.066

> <Idih>
0.000

> <Tether>
0.000

$$$$
VeraChem MOL file


 20 19  0  0  0  0  0  0  0  0999 V2000     
   20.6145   17.7279   19.1008 C   0  0  0  0  0  0  0  0  0  0  0  0
   20.3331   17.0205   18.3226 H   0  0  0  0  0  0  0  0  0  0  0  0
   21.6231   17.6537   19.5045 H   0  0  0  0  0  0  0  0  0  0  0  0
   19.7523   18.6473   19.5423 C   0  0  0  0  0  0  0  0  0  0  0  0
   18.7469   18.7040   19.1256 H   0  0  0  0  0  0  0  0  0  0  0  0
   20.0714   19.6615   20.6180 C   0  0  0  0  0  0  0  0  0  0  0  0
   19.7667   20.6616   20.2818 H   0  0  0  0  0  0  0  0  0  0  0  0
   21.1553   19.7031   20.7920 H   0  0  0  0  0  0  0  0  0  0  0  0
   19.3522   19.3177   21.9392 C   0  0  0  0  0  0  0  0  0  0  0  0
   18.2678   19.2800   21.7668 H   0  0  0  0  0  0  0  0  0  0  0  0
   19.6568   18.3138   22.2662 H   0  0  0  0  0  0  0  0  0  0  0  0
   19.6654   20.3471   23.0485 C   0  0  0  0  0  0  0  0  0  0  0  0
   19.3754   21.3494   22.7051 H   0  0  0  0  0  0  0  0  0  0  0  0
   20.7482   20.3772   23.2335 H   0  0  0  0  0  0  0  0  0  0  0  0
   18.9262   20.0368   24.3760 C   0  0  0  0  0  0  0  0  0  0  0  0
   19.0888   20.8561   25.0862 H   0  0  0  0  0  0  0  0  0  0  0  0
   17.8449   19.9767   24.2026 H   0  0  0  0  0  0  0  0  0  0  0  0
   19.3832   18.7482   25.0538 C   0  0  0  0  0  0  0  0  0  0  0  0
   20.4502   18.7549   25.6357 O   0  5  0  0  0  0  0  0  0  0  0  0
   18.6557   17.7765   24.9936 O   0  0  0  0  0  0  0  0  0  0  0  0
  1  2  1  0  0  0  0
  1  3  1  0  0  0  0
  1  4  2  0  0  0  0
  4  5  1  0  0  0  0
  4  6  1  0  0  0  0
  6  7  1  0  0  0  0
  6  8  1  0  0  0  0
  6  9  1  0  0  0  0
  9 10  1  0  0  0  0
  9 11  1  0  0  0  0
  9 12  1  0  0  0  0
 12 13  1  0  0  0  0
 12 14  1  0  0  0  0
 12 15  1  0  0  0  0
 15 16  1  0  0  0  0
 15 17  1  0  0  0  0
 15 18  1  0  0  0  0
 18 19  1  0  0  0  0
 18 20  2  0  0  0  0
M  END
> <VM2 Rank>
20

> <Conf_Id>
490

> <Probability>
1.29

> <Sum Probability>
87.51

> <Delta G>
1.408

> <G>
-20.481

> <E>
-35.688

> <-TS>
15.207

> <U+W>
-51.785

> <U>
9.412

> <W>
-61.197

> <W(PB)>
-63.440

> <W(SA)>
2.243

> <Valence>
9.329

> <Coulomb>
-0.324

> <VdW>
0.406

> <VdW6>
-6.640

> <VdW12>
7.047

> <Bond>
0.105

> <Angle>
2.401

> <Pdih>
6.822

> <Idih>
0.000

> <Tether>
0.000

$$$$
VeraChem MOL file


 20 19  0  0  0  0  0  0  0  0999 V2000     
   20.7855   17.7537   19.5834 C   0  0  0  0  0  0  0  0  0  0  0  0
   21.2095   17.5020   20.5532 H   0  0  0  0  0  0  0  0  0  0  0  0
   21.1263   17.1680   18.7313 H   0  0  0  0  0  0  0  0  0  0  0  0
   19.8871   18.7322   19.4245 C   0  0  0  0  0  0  0  0  0  0  0  0
   19.4980   18.9376   18.4275 H   0  0  0  0  0  0  0  0  0  0  0  0
   19.3196   19.6296   20.5115 C   0  0  0  0  0  0  0  0  0  0  0  0
   18.2261   19.5280   20.5180 H   0  0  0  0  0  0  0  0  0  0  0  0
   19.5183   20.6761   20.2442 H   0  0  0  0  0  0  0  0  0  0  0  0
   19.8622   19.3575   21.9341 C   0  0  0  0  0  0  0  0  0  0  0  0
   19.6489   18.3165   22.2135 H   0  0  0  0  0  0  0  0  0  0  0  0
   20.9543   19.4768   21.9401 H   0  0  0  0  0  0  0  0  0  0  0  0
   19.2370   20.3109   22.9776 C   0  0  0  0  0  0  0  0  0  0  0  0
   18.1451   20.1874   22.9877 H   0  0  0  0  0  0  0  0  0  0  0  0
   19.4350   21.3505   22.6835 H   0  0  0  0  0  0  0  0  0  0  0  0
   19.7932   20.0779   24.4064 C   0  0  0  0  0  0  0  0  0  0  0  0
   20.8858   20.1730   24.4078 H   0  0  0  0  0  0  0  0  0  0  0  0
   19.4063   20.8508   25.0809 H   0  0  0  0  0  0  0  0  0  0  0  0
   19.4215   18.7235   25.0034 C   0  0  0  0  0  0  0  0  0  0  0  0
   20.2782   17.8632   25.0569 O   0  5  0  0  0  0  0  0  0  0  0  0
   18.2867   18.5695   25.4103 O   0  0  0  0  0  0  0  0  0  0  0  0
  1  2  1  0  0  0  0
  1  3  1  0  0  0  0
  1  4  2  0  0  0  0
  4  5  1  0  0  0  0
  4  6  1  0  0  0  0
  6  7  1  0  0  0  0
  6  8  1  0  0  0  0
  6  9  1  0  0  0  0
  9 10  1  0  0  0  0
  9 11  1  0  0  0  0
  9 12  1  0  0  0  0
 12 13  1  0  0  0  0
 12 14  1  0  0  0  0
 12 15  1  0  0  0  0
 15 16  1  0  0  0  0
 15 17  1  0  0  0  0
 15 18  1  0  0  0  0
 18 19  1  0  0  0  0
 18 20  2  0  0  0  0
M  END
> <VM2 Rank>
21

> <Conf_Id>
941

> <Probability>
1.15

> <Sum Probability>
88.67

> <Delta G>
1.473

> <G>
-20.416

> <E>
-35.989

> <-TS>
15.573

> <U+W>
-52.086

> <U>
9.323

> <W>
-61.409

> <W(PB)>
-63.641

> <W(SA)>
2.232

> <Valence>
8.234

> <Coulomb>
-0.022

> <VdW>
1.111

> <VdW6>
-7.367

> <VdW12>
8.478

> <Bond>
0.158

> <Angle>
3.010

> <Pdih>
5.066

> <Idih>
0.000

> <Tether>
0.000

$$$$
VeraChem MOL file


 20 19  0  0  0  0  0  0  0  0999 V2000     
   21.1010   18.4809   19.1429 C   0  0  0  0  0  0  0  0  0  0  0  0
   20.4252   18.4885   18.2893 H   0  0  0  0  0  0  0  0  0  0  0  0
   22.0711   18.0052   19.0099 H   0  0  0  0  0  0  0  0  0  0  0  0
   20.7560   19.0299   20.3105 C   0  0  0  0  0  0  0  0  0  0  0  0
   21.4483   19.0135   21.1519 H   0  0  0  0  0  0  0  0  0  0  0  0
   19.4295   19.7121   20.5680 C   0  0  0  0  0  0  0  0  0  0  0  0
   18.9615   19.9832   19.6120 H   0  0  0  0  0  0  0  0  0  0  0  0
   19.5916   20.6576   21.1007 H   0  0  0  0  0  0  0  0  0  0  0  0
   18.4474   18.8142   21.3583 C   0  0  0  0  0  0  0  0  0  0  0  0
   17.4887   19.3397   21.4645 H   0  0  0  0  0  0  0  0  0  0  0  0
   18.2382   17.9130   20.7657 H   0  0  0  0  0  0  0  0  0  0  0  0
   18.9481   18.3846   22.7601 C   0  0  0  0  0  0  0  0  0  0  0  0
   19.8708   17.7961   22.6658 H   0  0  0  0  0  0  0  0  0  0  0  0
   18.2023   17.7135   23.2081 H   0  0  0  0  0  0  0  0  0  0  0  0
   19.1897   19.5748   23.7243 C   0  0  0  0  0  0  0  0  0  0  0  0
   19.9952   20.2166   23.3499 H   0  0  0  0  0  0  0  0  0  0  0  0
   18.2869   20.1927   23.7972 H   0  0  0  0  0  0  0  0  0  0  0  0
   19.5712   19.1258   25.1302 C   0  0  0  0  0  0  0  0  0  0  0  0
   20.7487   18.9591   25.3799 O   0  5  0  0  0  0  0  0  0  0  0  0
   18.6793   18.9367   25.9337 O   0  0  0  0  0  0  0  0  0  0  0  0
  1  2  1  0  0  0  0
  1  3  1  0  0  0  0
  1  4  2  0  0  0  0
  4  5  1  0  0  0  0
  4  6  1  0  0  0  0
  6  7  1  0  0  0  0
  6  8  1  0  0  0  0
  6  9  1  0  0  0  0
  9 10  1  0  0  0  0
  9 11  1  0  0  0  0
  9 12  1  0  0  0  0
 12 13  1  0  0  0  0
 12 14  1  0  0  0  0
 12 15  1  0  0  0  0
 15 16  1  0  0  0  0
 15 17  1  0  0  0  0
 15 18  1  0  0  0  0
 18 19  1  0  0  0  0
 18 20  2  0  0  0  0
M  END
> <VM2 Rank>
22

> <Conf_Id>
927

> <Probability>
1.02

> <Sum Probability>
89.69

> <Delta G>
1.543

> <G>
-20.346

> <E>
-35.613

> <-TS>
15.267

> <U+W>
-51.709

> <U>
8.691

> <W>
-60.400

> <W(PB)>
-62.593

> <W(SA)>
2.193

> <Valence>
9.775

> <Coulomb>
-1.698

> <VdW>
0.614

> <VdW6>
-7.233

> <VdW12>
7.847

> <Bond>
0.151

> <Angle>
2.692

> <Pdih>
6.931

> <Idih>
0.001

> <Tether>
0.000

$$$$
VeraChem MOL file


 20 19  0  0  0  0  0  0  0  0999 V2000     
   19.5973   18.0277   18.9489 C   0  0  0  0  0  0  0  0  0  0  0  0
   19.1055   17.1112   18.6274 H   0  0  0  0  0  0  0  0  0  0  0  0
   20.3365   18.4619   18.2778 H   0  0  0  0  0  0  0  0  0  0  0  0
   19.3045   18.5924   20.1233 C   0  0  0  0  0  0  0  0  0  0  0  0
   18.5597   18.1427   20.7794 H   0  0  0  0  0  0  0  0  0  0  0  0
   19.9422   19.8667   20.6341 C   0  0  0  0  0  0  0  0  0  0  0  0
   19.1729   20.5314   21.0467 H   0  0  0  0  0  0  0  0  0  0  0  0
   20.3945   20.4151   19.7968 H   0  0  0  0  0  0  0  0  0  0  0  0
   21.0383   19.5951   21.6925 C   0  0  0  0  0  0  0  0  0  0  0  0
   21.8355   18.9972   21.2297 H   0  0  0  0  0  0  0  0  0  0  0  0
   21.5002   20.5488   21.9819 H   0  0  0  0  0  0  0  0  0  0  0  0
   20.5422   18.8651   22.9658 C   0  0  0  0  0  0  0  0  0  0  0  0
   21.4042   18.6784   23.6211 H   0  0  0  0  0  0  0  0  0  0  0  0
   20.1406   17.8776   22.7006 H   0  0  0  0  0  0  0  0  0  0  0  0
   19.4752   19.6609   23.7612 C   0  0  0  0  0  0  0  0  0  0  0  0
   19.8497   20.6636   23.9991 H   0  0  0  0  0  0  0  0  0  0  0  0
   18.5640   19.7856   23.1654 H   0  0  0  0  0  0  0  0  0  0  0  0
   19.0844   18.9791   25.0675 C   0  0  0  0  0  0  0  0  0  0  0  0
   19.7189   19.2499   26.0679 O   0  5  0  0  0  0  0  0  0  0  0  0
   18.1680   18.1812   25.0468 O   0  0  0  0  0  0  0  0  0  0  0  0
  1  2  1  0  0  0  0
  1  3  1  0  0  0  0
  1  4  2  0  0  0  0
  4  5  1  0  0  0  0
  4  6  1  0  0  0  0
  6  7  1  0  0  0  0
  6  8  1  0  0  0  0
  6  9  1  0  0  0  0
  9 10  1  0  0  0  0
  9 11  1  0  0  0  0
  9 12  1  0  0  0  0
 12 13  1  0  0  0  0
 12 14  1  0  0  0  0
 12 15  1  0  0  0  0
 15 16  1  0  0  0  0
 15 17  1  0  0  0  0
 15 18  1  0  0  0  0
 18 19  1  0  0  0  0
 18 20  2  0  0  0  0
M  END
> <VM2 Rank>
23

> <Conf_Id>
923

> <Probability>
0.99

> <Sum Probability>
90.68

> <Delta G>
1.565

> <G>
-20.324

> <E>
-35.591

> <-TS>
15.266

> <U+W>
-51.687

> <U>
8.691

> <W>
-60.378

> <W(PB)>
-62.583

> <W(SA)>
2.205

> <Valence>
9.775

> <Coulomb>
-1.698

> <VdW>
0.614

> <VdW6>
-7.233

> <VdW12>
7.847

> <Bond>
0.151

> <Angle>
2.692

> <Pdih>
6.931

> <Idih>
0.001

> <Tether>
0.000

$$$$
VeraChem MOL file


 20 19  0  0  0  0  0  0  0  0999 V2000     
   20.2575   18.2020   18.3039 C   0  0  0  0  0  0  0  0  0  0  0  0
   19.6539   17.3088   18.4576 H   0  0  0  0  0  0  0  0  0  0  0  0
   20.9055   18.2241   17.4294 H   0  0  0  0  0  0  0  0  0  0  0  0
   20.2096   19.2311   19.1537 C   0  0  0  0  0  0  0  0  0  0  0  0
   20.8226   20.1157   18.9818 H   0  0  0  0  0  0  0  0  0  0  0  0
   19.3347   19.2724   20.3867 C   0  0  0  0  0  0  0  0  0  0  0  0
   18.5761   18.4791   20.3415 H   0  0  0  0  0  0  0  0  0  0  0  0
   18.7921   20.2267   20.4205 H   0  0  0  0  0  0  0  0  0  0  0  0
   20.1739   19.1084   21.6711 C   0  0  0  0  0  0  0  0  0  0  0  0
   20.7178   18.1545   21.6303 H   0  0  0  0  0  0  0  0  0  0  0  0
   20.9294   19.9047   21.7181 H   0  0  0  0  0  0  0  0  0  0  0  0
   19.2958   19.1511   22.9408 C   0  0  0  0  0  0  0  0  0  0  0  0
   18.5402   18.3546   22.8947 H   0  0  0  0  0  0  0  0  0  0  0  0
   18.7507   20.1044   22.9816 H   0  0  0  0  0  0  0  0  0  0  0  0
   20.1402   18.9854   24.2323 C   0  0  0  0  0  0  0  0  0  0  0  0
   20.6820   18.0328   24.2012 H   0  0  0  0  0  0  0  0  0  0  0  0
   20.8924   19.7809   24.2881 H   0  0  0  0  0  0  0  0  0  0  0  0
   19.3463   19.0159   25.5392 C   0  0  0  0  0  0  0  0  0  0  0  0
   19.9736   18.8905   26.5721 O   0  5  0  0  0  0  0  0  0  0  0  0
   18.1394   19.1612   25.5083 O   0  0  0  0  0  0  0  0  0  0  0  0
  1  2  1  0  0  0  0
  1  3  1  0  0  0  0
  1  4  2  0  0  0  0
  4  5  1  0  0  0  0
  4  6  1  0  0  0  0
  6  7  1  0  0  0  0
  6  8  1  0  0  0  0
  6  9  1  0  0  0  0
  9 10  1  0  0  0  0
  9 11  1  0  0  0  0
  9 12  1  0  0  0  0
 12 13  1  0  0  0  0
 12 14  1  0  0  0  0
 12 15  1  0  0  0  0
 15 16  1  0  0  0  0
 15 17  1  0  0  0  0
 15 18  1  0  0  0  0
 18 19  1  0  0  0  0
 18 20  2  0  0  0  0
M  END
> <VM2 Rank>
24

> <Conf_Id>
33

> <Probability>
0.84

> <Sum Probability>
91.52

> <Delta G>
1.658

> <G>
-20.231

> <E>
-35.649

> <-TS>
15.418

> <U+W>
-51.745

> <U>
7.593

> <W>
-59.338

> <W(PB)>
-61.574

> <W(SA)>
2.236

> <Valence>
9.570

> <Coulomb>
-3.091

> <VdW>
1.114

> <VdW6>
-6.064

> <VdW12>
7.178

> <Bond>
0.117

> <Angle>
2.692

> <Pdih>
6.761

> <Idih>
0.000

> <Tether>
0.000

$$$$
VeraChem MOL file


 20 19  0  0  0  0  0  0  0  0999 V2000     
   19.0965   17.5641   20.1212 C   0  0  0  0  0  0  0  0  0  0  0  0
   18.1653   17.7173   20.6642 H   0  0  0  0  0  0  0  0  0  0  0  0
   19.2856   16.5695   19.7214 H   0  0  0  0  0  0  0  0  0  0  0  0
   19.9778   18.5539   19.9554 C   0  0  0  0  0  0  0  0  0  0  0  0
   20.9057   18.3787   19.4117 H   0  0  0  0  0  0  0  0  0  0  0  0
   19.7853   19.9601   20.4822 C   0  0  0  0  0  0  0  0  0  0  0  0
   18.7502   20.1115   20.8142 H   0  0  0  0  0  0  0  0  0  0  0  0
   19.9469   20.6731   19.6629 H   0  0  0  0  0  0  0  0  0  0  0  0
   20.7663   20.2969   21.6308 C   0  0  0  0  0  0  0  0  0  0  0  0
   21.7951   20.2086   21.2559 H   0  0  0  0  0  0  0  0  0  0  0  0
   20.6350   21.3490   21.9181 H   0  0  0  0  0  0  0  0  0  0  0  0
   20.6138   19.4047   22.8880 C   0  0  0  0  0  0  0  0  0  0  0  0
   21.4029   19.6703   23.6049 H   0  0  0  0  0  0  0  0  0  0  0  0
   20.7802   18.3514   22.6235 H   0  0  0  0  0  0  0  0  0  0  0  0
   19.2369   19.5502   23.5864 C   0  0  0  0  0  0  0  0  0  0  0  0
   19.0367   20.6039   23.8136 H   0  0  0  0  0  0  0  0  0  0  0  0
   18.4335   19.1996   22.9287 H   0  0  0  0  0  0  0  0  0  0  0  0
   19.1491   18.7618   24.8883 C   0  0  0  0  0  0  0  0  0  0  0  0
   19.5321   19.2980   25.9095 O   0  5  0  0  0  0  0  0  0  0  0  0
   18.7133   17.6283   24.8463 O   0  0  0  0  0  0  0  0  0  0  0  0
  1  2  1  0  0  0  0
  1  3  1  0  0  0  0
  1  4  2  0  0  0  0
  4  5  1  0  0  0  0
  4  6  1  0  0  0  0
  6  7  1  0  0  0  0
  6  8  1  0  0  0  0
  6  9  1  0  0  0  0
  9 10  1  0  0  0  0
  9 11  1  0  0  0  0
  9 12  1  0  0  0  0
 12 13  1  0  0  0  0
 12 14  1  0  0  0  0
 12 15  1  0  0  0  0
 15 16  1  0  0  0  0
 15 17  1  0  0  0  0
 15 18  1  0  0  0  0
 18 19  1  0  0  0  0
 18 20  2  0  0  0  0
M  END
> <VM2 Rank>
25

> <Conf_Id>
946

> <Probability>
0.70

> <Sum Probability>
92.22

> <Delta G>
1.773

> <G>
-20.116

> <E>
-35.471

> <-TS>
15.354

> <U+W>
-51.567

> <U>
9.796

> <W>
-61.363

> <W(PB)>
-63.525

> <W(SA)>
2.162

> <Valence>
9.746

> <Coulomb>
-0.310

> <VdW>
0.360

> <VdW6>
-7.585

> <VdW12>
7.945

> <Bond>
0.150

> <Angle>
2.663

> <Pdih>
6.933

> <Idih>
0.000

> <Tether>
0.000

$$$$
VeraChem MOL file


 20 19  0  0  0  0  0  0  0  0999 V2000     
   19.0086   17.6203   20.1110 C   0  0  0  0  0  0  0  0  0  0  0  0
   19.4359   16.9054   20.8122 H   0  0  0  0  0  0  0  0  0  0  0  0
   18.1033   17.3250   19.5836 H   0  0  0  0  0  0  0  0  0  0  0  0
   19.5671   18.8164   19.9074 C   0  0  0  0  0  0  0  0  0  0  0  0
   19.1214   19.5188   19.2037 H   0  0  0  0  0  0  0  0  0  0  0  0
   20.8228   19.2971   20.6030 C   0  0  0  0  0  0  0  0  0  0  0  0
   21.5323   19.6601   19.8476 H   0  0  0  0  0  0  0  0  0  0  0  0
   21.3254   18.4660   21.1142 H   0  0  0  0  0  0  0  0  0  0  0  0
   20.5384   20.4425   21.6043 C   0  0  0  0  0  0  0  0  0  0  0  0
   21.4904   20.8025   22.0177 H   0  0  0  0  0  0  0  0  0  0  0  0
   20.1021   21.2903   21.0587 H   0  0  0  0  0  0  0  0  0  0  0  0
   19.5926   20.0571   22.7690 C   0  0  0  0  0  0  0  0  0  0  0  0
   18.6217   19.7305   22.3720 H   0  0  0  0  0  0  0  0  0  0  0  0
   19.3928   20.9546   23.3707 H   0  0  0  0  0  0  0  0  0  0  0  0
   20.1689   18.9548   23.6950 C   0  0  0  0  0  0  0  0  0  0  0  0
   20.2886   18.0146   23.1449 H   0  0  0  0  0  0  0  0  0  0  0  0
   21.1601   19.2475   24.0611 H   0  0  0  0  0  0  0  0  0  0  0  0
   19.2827   18.6765   24.9038 C   0  0  0  0  0  0  0  0  0  0  0  0
   19.4411   19.3561   25.8988 O   0  5  0  0  0  0  0  0  0  0  0  0
   18.4487   17.7971   24.8156 O   0  0  0  0  0  0  0  0  0  0  0  0
  1  2  1  0  0  0  0
  1  3  1  0  0  0  0
  1  4  2  0  0  0  0
  4  5  1  0  0  0  0
  4  6  1  0  0  0  0
  6  7  1  0  0  0  0
  6  8  1  0  0  0  0
  6  9  1  0  0  0  0
  9 10  1  0  0  0  0
  9 11  1  0  0  0  0
  9 12  1  0  0  0  0
 12 13  1  0  0  0  0
 12 14  1  0  0  0  0
 12 15  1  0  0  0  0
 15 16  1  0  0  0  0
 15 17  1  0  0  0  0
 15 18  1  0  0  0  0
 18 19  1  0  0  0  0
 18 20  2  0  0  0  0
M  END
> <VM2 Rank>
26

> <Conf_Id>
765

> <Probability>
0.65

> <Sum Probability>
92.87

> <Delta G>
1.815

> <G>
-20.074

> <E>
-35.428

> <-TS>
15.354

> <U+W>
-51.525

> <U>
9.796

> <W>
-61.320

> <W(PB)>
-63.481

> <W(SA)>
2.161

> <Valence>
9.746

> <Coulomb>
-0.310

> <VdW>
0.360

> <VdW6>
-7.585

> <VdW12>
7.944

> <Bond>
0.150

> <Angle>
2.663

> <Pdih>
6.933

> <Idih>
0.000

> <Tether>
0.000

$$$$
VeraChem MOL file


 20 19  0  0  0  0  0  0  0  0999 V2000     
   20.2716   17.5710   19.4449 C   0  0  0  0  0  0  0  0  0  0  0  0
   19.7348   16.7195   19.0302 H   0  0  0  0  0  0  0  0  0  0  0  0
   21.3597   17.5352   19.4257 H   0  0  0  0  0  0  0  0  0  0  0  0
   19.6172   18.6154   19.9594 C   0  0  0  0  0  0  0  0  0  0  0  0
   18.5277   18.6319   19.9662 H   0  0  0  0  0  0  0  0  0  0  0  0
   20.2953   19.8346   20.5471 C   0  0  0  0  0  0  0  0  0  0  0  0
   19.7995   20.7470   20.1898 H   0  0  0  0  0  0  0  0  0  0  0  0
   21.3330   19.8892   20.1910 H   0  0  0  0  0  0  0  0  0  0  0  0
   20.3027   19.8158   22.0923 C   0  0  0  0  0  0  0  0  0  0  0  0
   20.7900   18.8950   22.4421 H   0  0  0  0  0  0  0  0  0  0  0  0
   20.9173   20.6514   22.4538 H   0  0  0  0  0  0  0  0  0  0  0  0
   18.8851   19.9274   22.7020 C   0  0  0  0  0  0  0  0  0  0  0  0
   18.2744   19.0675   22.3947 H   0  0  0  0  0  0  0  0  0  0  0  0
   18.3903   20.8248   22.3069 H   0  0  0  0  0  0  0  0  0  0  0  0
   18.9082   20.0060   24.2506 C   0  0  0  0  0  0  0  0  0  0  0  0
   19.5331   20.8454   24.5786 H   0  0  0  0  0  0  0  0  0  0  0  0
   17.8953   20.2001   24.6226 H   0  0  0  0  0  0  0  0  0  0  0  0
   19.4078   18.7332   24.9283 C   0  0  0  0  0  0  0  0  0  0  0  0
   20.5376   18.7247   25.3760 O   0  5  0  0  0  0  0  0  0  0  0  0
   18.6455   17.7900   25.0074 O   0  0  0  0  0  0  0  0  0  0  0  0
  1  2  1  0  0  0  0
  1  3  1  0  0  0  0
  1  4  2  0  0  0  0
  4  5  1  0  0  0  0
  4  6  1  0  0  0  0
  6  7  1  0  0  0  0
  6  8  1  0  0  0  0
  6  9  1  0  0  0  0
  9 10  1  0  0  0  0
  9 11  1  0  0  0  0
  9 12  1  0  0  0  0
 12 13  1  0  0  0  0
 12 14  1  0  0  0  0
 12 15  1  0  0  0  0
 15 16  1  0  0  0  0
 15 17  1  0  0  0  0
 15 18  1  0  0  0  0
 18 19  1  0  0  0  0
 18 20  2  0  0  0  0
M  END
> <VM2 Rank>
27

> <Conf_Id>
164

> <Probability>
0.55

> <Sum Probability>
93.42

> <Delta G>
1.917

> <G>
-19.972

> <E>
-35.340

> <-TS>
15.368

> <U+W>
-51.437

> <U>
10.461

> <W>
-61.898

> <W(PB)>
-64.078

> <W(SA)>
2.180

> <Valence>
9.554

> <Coulomb>
0.484

> <VdW>
0.423

> <VdW6>
-7.224

> <VdW12>
7.647

> <Bond>
0.126

> <Angle>
2.492

> <Pdih>
6.936

> <Idih>
0.001

> <Tether>
0.000

$$$$
VeraChem MOL file


 20 19  0  0  0  0  0  0  0  0999 V2000     
   20.7321   18.6108   18.7837 C   0  0  0  0  0  0  0  0  0  0  0  0
   20.6934   17.8035   18.0543 H   0  0  0  0  0  0  0  0  0  0  0  0
   21.6147   19.2484   18.7792 H   0  0  0  0  0  0  0  0  0  0  0  0
   19.7352   18.8061   19.6506 C   0  0  0  0  0  0  0  0  0  0  0  0
   18.8593   18.1582   19.6357 H   0  0  0  0  0  0  0  0  0  0  0  0
   19.7169   19.9101   20.6864 C   0  0  0  0  0  0  0  0  0  0  0  0
   18.7249   20.3802   20.7152 H   0  0  0  0  0  0  0  0  0  0  0  0
   20.4230   20.7003   20.3973 H   0  0  0  0  0  0  0  0  0  0  0  0
   20.0939   19.4016   22.0962 C   0  0  0  0  0  0  0  0  0  0  0  0
   21.0790   18.9166   22.0584 H   0  0  0  0  0  0  0  0  0  0  0  0
   20.1968   20.2666   22.7656 H   0  0  0  0  0  0  0  0  0  0  0  0
   19.0494   18.4217   22.6818 C   0  0  0  0  0  0  0  0  0  0  0  0
   18.9600   17.5460   22.0256 H   0  0  0  0  0  0  0  0  0  0  0  0
   18.0612   18.9014   22.7061 H   0  0  0  0  0  0  0  0  0  0  0  0
   19.4207   17.9377   24.1077 C   0  0  0  0  0  0  0  0  0  0  0  0
   18.7197   17.1560   24.4232 H   0  0  0  0  0  0  0  0  0  0  0  0
   20.4202   17.4862   24.1061 H   0  0  0  0  0  0  0  0  0  0  0  0
   19.3840   19.0369   25.1657 C   0  0  0  0  0  0  0  0  0  0  0  0
   20.4398   19.4844   25.5682 O   0  5  0  0  0  0  0  0  0  0  0  0
   18.2989   19.4086   25.5676 O   0  0  0  0  0  0  0  0  0  0  0  0
  1  2  1  0  0  0  0
  1  3  1  0  0  0  0
  1  4  2  0  0  0  0
  4  5  1  0  0  0  0
  4  6  1  0  0  0  0
  6  7  1  0  0  0  0
  6  8  1  0  0  0  0
  6  9  1  0  0  0  0
  9 10  1  0  0  0  0
  9 11  1  0  0  0  0
  9 12  1  0  0  0  0
 12 13  1  0  0  0  0
 12 14  1  0  0  0  0
 12 15  1  0  0  0  0
 15 16  1  0  0  0  0
 15 17  1  0  0  0  0
 15 18  1  0  0  0  0
 18 19  1  0  0  0  0
 18 20  2  0  0  0  0
M  END
> <VM2 Rank>
28

> <Conf_Id>
524

> <Probability>
0.54

> <Sum Probability>
93.96

> <Delta G>
1.923

> <G>
-19.966

> <E>
-35.309

> <-TS>
15.343

> <U+W>
-51.406

> <U>
9.191

> <W>
-60.597

> <W(PB)>
-62.798

> <W(SA)>
2.201

> <Valence>
9.572

> <Coulomb>
-0.885

> <VdW>
0.504

> <VdW6>
-7.168

> <VdW12>
7.672

> <Bond>
0.127

> <Angle>
2.504

> <Pdih>
6.941

> <Idih>
0.001

> <Tether>
0.000

$$$$
VeraChem MOL file


 20 19  0  0  0  0  0  0  0  0999 V2000     
   20.6907   17.6974   19.4986 C   0  0  0  0  0  0  0  0  0  0  0  0
   19.8378   17.0766   19.2291 H   0  0  0  0  0  0  0  0  0  0  0  0
   21.6834   17.3071   19.2811 H   0  0  0  0  0  0  0  0  0  0  0  0
   20.5297   18.8904   20.0770 C   0  0  0  0  0  0  0  0  0  0  0  0
   21.3971   19.4969   20.3361 H   0  0  0  0  0  0  0  0  0  0  0  0
   19.1827   19.4992   20.4035 C   0  0  0  0  0  0  0  0  0  0  0  0
   18.3996   19.0051   19.8126 H   0  0  0  0  0  0  0  0  0  0  0  0
   19.1688   20.5569   20.1085 H   0  0  0  0  0  0  0  0  0  0  0  0
   18.8271   19.3709   21.9020 C   0  0  0  0  0  0  0  0  0  0  0  0
   17.7927   19.7096   22.0509 H   0  0  0  0  0  0  0  0  0  0  0  0
   18.8541   18.3114   22.1923 H   0  0  0  0  0  0  0  0  0  0  0  0
   19.7668   20.1929   22.8157 C   0  0  0  0  0  0  0  0  0  0  0  0
   19.7692   21.2402   22.4847 H   0  0  0  0  0  0  0  0  0  0  0  0
   20.7986   19.8280   22.7203 H   0  0  0  0  0  0  0  0  0  0  0  0
   19.3447   20.1375   24.3069 C   0  0  0  0  0  0  0  0  0  0  0  0
   19.9686   20.8250   24.8900 H   0  0  0  0  0  0  0  0  0  0  0  0
   18.3077   20.4761   24.4205 H   0  0  0  0  0  0  0  0  0  0  0  0
   19.4768   18.7541   24.9373 C   0  0  0  0  0  0  0  0  0  0  0  0
   20.5861   18.3749   25.2580 O   0  5  0  0  0  0  0  0  0  0  0  0
   18.4666   18.1006   25.1089 O   0  0  0  0  0  0  0  0  0  0  0  0
  1  2  1  0  0  0  0
  1  3  1  0  0  0  0
  1  4  2  0  0  0  0
  4  5  1  0  0  0  0
  4  6  1  0  0  0  0
  6  7  1  0  0  0  0
  6  8  1  0  0  0  0
  6  9  1  0  0  0  0
  9 10  1  0  0  0  0
  9 11  1  0  0  0  0
  9 12  1  0  0  0  0
 12 13  1  0  0  0  0
 12 14  1  0  0  0  0
 12 15  1  0  0  0  0
 15 16  1  0  0  0  0
 15 17  1  0  0  0  0
 15 18  1  0  0  0  0
 18 19  1  0  0  0  0
 18 20  2  0  0  0  0
M  END
> <VM2 Rank>
29

> <Conf_Id>
334

> <Probability>
0.52

> <Sum Probability>
94.48

> <Delta G>
1.947

> <G>
-19.942

> <E>
-35.310

> <-TS>
15.368

> <U+W>
-51.407

> <U>
10.461

> <W>
-61.867

> <W(PB)>
-64.045

> <W(SA)>
2.178

> <Valence>
9.554

> <Coulomb>
0.483

> <VdW>
0.423

> <VdW6>
-7.224

> <VdW12>
7.647

> <Bond>
0.126

> <Angle>
2.492

> <Pdih>
6.936

> <Idih>
0.001

> <Tether>
0.000

$$$$
VeraChem MOL file


 20 19  0  0  0  0  0  0  0  0999 V2000     
   21.2244   19.6593   19.9318 C   0  0  0  0  0  0  0  0  0  0  0  0
   20.6953   20.5956   20.0949 H   0  0  0  0  0  0  0  0  0  0  0  0
   22.2688   19.7282   19.6327 H   0  0  0  0  0  0  0  0  0  0  0  0
   20.6319   18.4697   20.0819 C   0  0  0  0  0  0  0  0  0  0  0  0
   21.2088   17.5628   19.9030 H   0  0  0  0  0  0  0  0  0  0  0  0
   19.1909   18.2230   20.4982 C   0  0  0  0  0  0  0  0  0  0  0  0
   19.1473   17.3075   21.1012 H   0  0  0  0  0  0  0  0  0  0  0  0
   18.6012   17.9956   19.6004 H   0  0  0  0  0  0  0  0  0  0  0  0
   18.5041   19.3737   21.2796 C   0  0  0  0  0  0  0  0  0  0  0  0
   18.4917   20.2792   20.6588 H   0  0  0  0  0  0  0  0  0  0  0  0
   17.4498   19.1100   21.4394 H   0  0  0  0  0  0  0  0  0  0  0  0
   19.1477   19.6997   22.6515 C   0  0  0  0  0  0  0  0  0  0  0  0
   18.6406   20.5771   23.0760 H   0  0  0  0  0  0  0  0  0  0  0  0
   20.1991   19.9869   22.5192 H   0  0  0  0  0  0  0  0  0  0  0  0
   19.0591   18.5339   23.6703 C   0  0  0  0  0  0  0  0  0  0  0  0
   18.0199   18.2007   23.7761 H   0  0  0  0  0  0  0  0  0  0  0  0
   19.6441   17.6746   23.3234 H   0  0  0  0  0  0  0  0  0  0  0  0
   19.5742   18.9185   25.0527 C   0  0  0  0  0  0  0  0  0  0  0  0
   20.7469   18.7232   25.3044 O   0  5  0  0  0  0  0  0  0  0  0  0
   18.7917   19.4171   25.8376 O   0  0  0  0  0  0  0  0  0  0  0  0
  1  2  1  0  0  0  0
  1  3  1  0  0  0  0
  1  4  2  0  0  0  0
  4  5  1  0  0  0  0
  4  6  1  0  0  0  0
  6  7  1  0  0  0  0
  6  8  1  0  0  0  0
  6  9  1  0  0  0  0
  9 10  1  0  0  0  0
  9 11  1  0  0  0  0
  9 12  1  0  0  0  0
 12 13  1  0  0  0  0
 12 14  1  0  0  0  0
 12 15  1  0  0  0  0
 15 16  1  0  0  0  0
 15 17  1  0  0  0  0
 15 18  1  0  0  0  0
 18 19  1  0  0  0  0
 18 20  2  0  0  0  0
M  END
> <VM2 Rank>
30

> <Conf_Id>
491

> <Probability>
0.44

> <Sum Probability>
94.92

> <Delta G>
2.047

> <G>
-19.842

> <E>
-35.286

> <-TS>
15.444

> <U+W>
-51.382

> <U>
10.000

> <W>
-61.383

> <W(PB)>
-63.544

> <W(SA)>
2.161

> <Valence>
9.399

> <Coulomb>
-0.503

> <VdW>
1.104

> <VdW6>
-7.975

> <VdW12>
9.080

> <Bond>
0.216

> <Angle>
3.417

> <Pdih>
5.765

> <Idih>
0.001

> <Tether>
0.000

$$$$
VeraChem MOL file


 20 19  0  0  0  0  0  0  0  0999 V2000     
   20.8098   18.8306   18.7903 C   0  0  0  0  0  0  0  0  0  0  0  0
   21.0974   17.7818   18.7372 H   0  0  0  0  0  0  0  0  0  0  0  0
   21.2993   19.5198   18.1044 H   0  0  0  0  0  0  0  0  0  0  0  0
   19.8950   19.2594   19.6638 C   0  0  0  0  0  0  0  0  0  0  0  0
   19.6194   20.3130   19.6980 H   0  0  0  0  0  0  0  0  0  0  0  0
   19.1695   18.3596   20.6414 C   0  0  0  0  0  0  0  0  0  0  0  0
   19.2288   17.3175   20.2991 H   0  0  0  0  0  0  0  0  0  0  0  0
   18.1017   18.6150   20.6639 H   0  0  0  0  0  0  0  0  0  0  0  0
   19.7563   18.4455   22.0685 C   0  0  0  0  0  0  0  0  0  0  0  0
   19.2816   17.6743   22.6905 H   0  0  0  0  0  0  0  0  0  0  0  0
   20.8282   18.2062   22.0378 H   0  0  0  0  0  0  0  0  0  0  0  0
   19.5474   19.8320   22.7227 C   0  0  0  0  0  0  0  0  0  0  0  0
   18.4766   20.0780   22.7402 H   0  0  0  0  0  0  0  0  0  0  0  0
   20.0390   20.6024   22.1141 H   0  0  0  0  0  0  0  0  0  0  0  0
   20.1142   19.9017   24.1646 C   0  0  0  0  0  0  0  0  0  0  0  0
   21.1755   19.6255   24.1679 H   0  0  0  0  0  0  0  0  0  0  0  0
   20.0533   20.9327   24.5326 H   0  0  0  0  0  0  0  0  0  0  0  0
   19.3768   19.0163   25.1651 C   0  0  0  0  0  0  0  0  0  0  0  0
   19.9105   17.9853   25.5247 O   0  5  0  0  0  0  0  0  0  0  0  0
   18.2915   19.3876   25.5669 O   0  0  0  0  0  0  0  0  0  0  0  0
  1  2  1  0  0  0  0
  1  3  1  0  0  0  0
  1  4  2  0  0  0  0
  4  5  1  0  0  0  0
  4  6  1  0  0  0  0
  6  7  1  0  0  0  0
  6  8  1  0  0  0  0
  6  9  1  0  0  0  0
  9 10  1  0  0  0  0
  9 11  1  0  0  0  0
  9 12  1  0  0  0  0
 12 13  1  0  0  0  0
 12 14  1  0  0  0  0
 12 15  1  0  0  0  0
 15 16  1  0  0  0  0
 15 17  1  0  0  0  0
 15 18  1  0  0  0  0
 18 19  1  0  0  0  0
 18 20  2  0  0  0  0
M  END
> <VM2 Rank>
31

> <Conf_Id>
933

> <Probability>
0.43

> <Sum Probability>
95.35

> <Delta G>
2.061

> <G>
-19.828

> <E>
-35.172

> <-TS>
15.344

> <U+W>
-51.269

> <U>
9.192

> <W>
-60.460

> <W(PB)>
-62.648

> <W(SA)>
2.188

> <Valence>
9.572

> <Coulomb>
-0.884

> <VdW>
0.504

> <VdW6>
-7.168

> <VdW12>
7.672

> <Bond>
0.127

> <Angle>
2.504

> <Pdih>
6.941

> <Idih>
0.001

> <Tether>
0.000

$$$$
VeraChem MOL file


 20 19  0  0  0  0  0  0  0  0999 V2000     
   18.6726   18.8918   19.6026 C   0  0  0  0  0  0  0  0  0  0  0  0
   17.8626   18.4030   19.0640 H   0  0  0  0  0  0  0  0  0  0  0  0
   18.5524   19.9510   19.8189 H   0  0  0  0  0  0  0  0  0  0  0  0
   19.7619   18.2080   19.9695 C   0  0  0  0  0  0  0  0  0  0  0  0
   19.8313   17.1485   19.7247 H   0  0  0  0  0  0  0  0  0  0  0  0
   20.9611   18.7553   20.7266 C   0  0  0  0  0  0  0  0  0  0  0  0
   21.7696   18.9484   20.0092 H   0  0  0  0  0  0  0  0  0  0  0  0
   21.3530   17.9708   21.3858 H   0  0  0  0  0  0  0  0  0  0  0  0
   20.7076   20.0364   21.5638 C   0  0  0  0  0  0  0  0  0  0  0  0
   21.6640   20.3775   21.9830 H   0  0  0  0  0  0  0  0  0  0  0  0
   20.3703   20.8442   20.9011 H   0  0  0  0  0  0  0  0  0  0  0  0
   19.6918   19.8633   22.7217 C   0  0  0  0  0  0  0  0  0  0  0  0
   18.7186   19.5413   22.3282 H   0  0  0  0  0  0  0  0  0  0  0  0
   19.5249   20.8431   23.1899 H   0  0  0  0  0  0  0  0  0  0  0  0
   20.1594   18.8650   23.8124 C   0  0  0  0  0  0  0  0  0  0  0  0
   20.2356   17.8526   23.4000 H   0  0  0  0  0  0  0  0  0  0  0  0
   21.1537   19.1439   24.1807 H   0  0  0  0  0  0  0  0  0  0  0  0
   19.2126   18.8098   25.0061 C   0  0  0  0  0  0  0  0  0  0  0  0
   19.3894   19.5974   25.9146 O   0  5  0  0  0  0  0  0  0  0  0  0
   18.3147   17.9911   24.9907 O   0  0  0  0  0  0  0  0  0  0  0  0
  1  2  1  0  0  0  0
  1  3  1  0  0  0  0
  1  4  2  0  0  0  0
  4  5  1  0  0  0  0
  4  6  1  0  0  0  0
  6  7  1  0  0  0  0
  6  8  1  0  0  0  0
  6  9  1  0  0  0  0
  9 10  1  0  0  0  0
  9 11  1  0  0  0  0
  9 12  1  0  0  0  0
 12 13  1  0  0  0  0
 12 14  1  0  0  0  0
 12 15  1  0  0  0  0
 15 16  1  0  0  0  0
 15 17  1  0  0  0  0
 15 18  1  0  0  0  0
 18 19  1  0  0  0  0
 18 20  2  0  0  0  0
M  END
> <VM2 Rank>
32

> <Conf_Id>
178

> <Probability>
0.43

> <Sum Probability>
95.78

> <Delta G>
2.063

> <G>
-19.827

> <E>
-35.270

> <-TS>
15.443

> <U+W>
-51.366

> <U>
10.000

> <W>
-61.367

> <W(PB)>
-63.511

> <W(SA)>
2.144

> <Valence>
9.398

> <Coulomb>
-0.503

> <VdW>
1.105

> <VdW6>
-7.975

> <VdW12>
9.080

> <Bond>
0.216

> <Angle>
3.417

> <Pdih>
5.765

> <Idih>
0.001

> <Tether>
0.000

$$$$
VeraChem MOL file


 20 19  0  0  0  0  0  0  0  0999 V2000     
   19.6798   18.1469   18.9853 C   0  0  0  0  0  0  0  0  0  0  0  0
   20.1837   17.4757   18.2920 H   0  0  0  0  0  0  0  0  0  0  0  0
   18.6001   18.0473   19.0841 H   0  0  0  0  0  0  0  0  0  0  0  0
   20.3636   19.0537   19.6883 C   0  0  0  0  0  0  0  0  0  0  0  0
   21.4444   19.1356   19.5764 H   0  0  0  0  0  0  0  0  0  0  0  0
   19.7336   20.0191   20.6698 C   0  0  0  0  0  0  0  0  0  0  0  0
   18.6394   20.0099   20.5734 H   0  0  0  0  0  0  0  0  0  0  0  0
   20.0573   21.0398   20.4264 H   0  0  0  0  0  0  0  0  0  0  0  0
   20.1250   19.7078   22.1320 C   0  0  0  0  0  0  0  0  0  0  0  0
   21.2194   19.7130   22.2283 H   0  0  0  0  0  0  0  0  0  0  0  0
   19.7505   20.5149   22.7765 H   0  0  0  0  0  0  0  0  0  0  0  0
   19.5619   18.3539   22.6254 C   0  0  0  0  0  0  0  0  0  0  0  0
   19.9409   17.5454   21.9860 H   0  0  0  0  0  0  0  0  0  0  0  0
   18.4677   18.3478   22.5254 H   0  0  0  0  0  0  0  0  0  0  0  0
   19.9459   18.0487   24.0966 C   0  0  0  0  0  0  0  0  0  0  0  0
   19.6290   17.0312   24.3541 H   0  0  0  0  0  0  0  0  0  0  0  0
   21.0353   18.0824   24.2184 H   0  0  0  0  0  0  0  0  0  0  0  0
   19.3122   18.9948   25.1125 C   0  0  0  0  0  0  0  0  0  0  0  0
   20.0108   19.8543   25.6129 O   0  5  0  0  0  0  0  0  0  0  0  0
   18.1382   18.8389   25.3854 O   0  0  0  0  0  0  0  0  0  0  0  0
  1  2  1  0  0  0  0
  1  3  1  0  0  0  0
  1  4  2  0  0  0  0
  4  5  1  0  0  0  0
  4  6  1  0  0  0  0
  6  7  1  0  0  0  0
  6  8  1  0  0  0  0
  6  9  1  0  0  0  0
  9 10  1  0  0  0  0
  9 11  1  0  0  0  0
  9 12  1  0  0  0  0
 12 13  1  0  0  0  0
 12 14  1  0  0  0  0
 12 15  1  0  0  0  0
 15 16  1  0  0  0  0
 15 17  1  0  0  0  0
 15 18  1  0  0  0  0
 18 19  1  0  0  0  0
 18 20  2  0  0  0  0
M  END
> <VM2 Rank>
33

> <Conf_Id>
179

> <Probability>
0.41

> <Sum Probability>
96.19

> <Delta G>
2.085

> <G>
-19.804

> <E>
-35.222

> <-TS>
15.418

> <U+W>
-51.318

> <U>
9.294

> <W>
-60.613

> <W(PB)>
-62.807

> <W(SA)>
2.194

> <Valence>
9.495

> <Coulomb>
-0.611

> <VdW>
0.410

> <VdW6>
-7.332

> <VdW12>
7.741

> <Bond>
0.126

> <Angle>
2.497

> <Pdih>
6.872

> <Idih>
0.000

> <Tether>
0.000

$$$$
VeraChem MOL file


 20 19  0  0  0  0  0  0  0  0999 V2000     
   20.9610   18.5330   19.1505 C   0  0  0  0  0  0  0  0  0  0  0  0
   21.0816   17.7461   18.4079 H   0  0  0  0  0  0  0  0  0  0  0  0
   21.8624   19.0303   19.5048 H   0  0  0  0  0  0  0  0  0  0  0  0
   19.7527   18.8696   19.6095 C   0  0  0  0  0  0  0  0  0  0  0  0
   18.8631   18.3576   19.2436 H   0  0  0  0  0  0  0  0  0  0  0  0
   19.5065   19.9506   20.6404 C   0  0  0  0  0  0  0  0  0  0  0  0
   18.7468   20.6448   20.2574 H   0  0  0  0  0  0  0  0  0  0  0  0
   20.4158   20.5452   20.8024 H   0  0  0  0  0  0  0  0  0  0  0  0
   19.0199   19.3748   21.9894 C   0  0  0  0  0  0  0  0  0  0  0  0
   18.7323   20.2080   22.6451 H   0  0  0  0  0  0  0  0  0  0  0  0
   18.1128   18.7766   21.8277 H   0  0  0  0  0  0  0  0  0  0  0  0
   20.0958   18.5150   22.6943 C   0  0  0  0  0  0  0  0  0  0  0  0
   21.0042   19.1125   22.8527 H   0  0  0  0  0  0  0  0  0  0  0  0
   20.3795   17.6778   22.0426 H   0  0  0  0  0  0  0  0  0  0  0  0
   19.6098   17.9473   24.0532 C   0  0  0  0  0  0  0  0  0  0  0  0
   18.6853   17.3738   23.9151 H   0  0  0  0  0  0  0  0  0  0  0  0
   20.3591   17.2514   24.4483 H   0  0  0  0  0  0  0  0  0  0  0  0
   19.3685   19.0117   25.1197 C   0  0  0  0  0  0  0  0  0  0  0  0
   20.3358   19.5014   25.6690 O   0  5  0  0  0  0  0  0  0  0  0  0
   18.2211   19.3147   25.3819 O   0  0  0  0  0  0  0  0  0  0  0  0
  1  2  1  0  0  0  0
  1  3  1  0  0  0  0
  1  4  2  0  0  0  0
  4  5  1  0  0  0  0
  4  6  1  0  0  0  0
  6  7  1  0  0  0  0
  6  8  1  0  0  0  0
  6  9  1  0  0  0  0
  9 10  1  0  0  0  0
  9 11  1  0  0  0  0
  9 12  1  0  0  0  0
 12 13  1  0  0  0  0
 12 14  1  0  0  0  0
 12 15  1  0  0  0  0
 15 16  1  0  0  0  0
 15 17  1  0  0  0  0
 15 18  1  0  0  0  0
 18 19  1  0  0  0  0
 18 20  2  0  0  0  0
M  END
> <VM2 Rank>
34

> <Conf_Id>
521

> <Probability>
0.39

> <Sum Probability>
96.58

> <Delta G>
2.113

> <G>
-19.776

> <E>
-35.195

> <-TS>
15.419

> <U+W>
-51.291

> <U>
9.294

> <W>
-60.585

> <W(PB)>
-62.765

> <W(SA)>
2.180

> <Valence>
9.495

> <Coulomb>
-0.611

> <VdW>
0.409

> <VdW6>
-7.332

> <VdW12>
7.741

> <Bond>
0.126

> <Angle>
2.497

> <Pdih>
6.872

> <Idih>
0.000

> <Tether>
0.000

$$$$
VeraChem MOL file


 20 19  0  0  0  0  0  0  0  0999 V2000     
   19.6681   17.8246   19.3580 C   0  0  0  0  0  0  0  0  0  0  0  0
   18.7451   18.2829   19.0069 H   0  0  0  0  0  0  0  0  0  0  0  0
   19.8615   16.7954   19.0605 H   0  0  0  0  0  0  0  0  0  0  0  0
   20.5305   18.4942   20.1274 C   0  0  0  0  0  0  0  0  0  0  0  0
   21.4475   18.0160   20.4707 H   0  0  0  0  0  0  0  0  0  0  0  0
   20.3300   19.9242   20.5822 C   0  0  0  0  0  0  0  0  0  0  0  0
   19.4950   20.3889   20.0404 H   0  0  0  0  0  0  0  0  0  0  0  0
   21.2251   20.5091   20.3324 H   0  0  0  0  0  0  0  0  0  0  0  0
   20.0779   20.0247   22.1035 C   0  0  0  0  0  0  0  0  0  0  0  0
   20.9174   19.5654   22.6436 H   0  0  0  0  0  0  0  0  0  0  0  0
   20.0627   21.0845   22.3921 H   0  0  0  0  0  0  0  0  0  0  0  0
   18.7479   19.3616   22.5331 C   0  0  0  0  0  0  0  0  0  0  0  0
   18.7660   18.2906   22.2880 H   0  0  0  0  0  0  0  0  0  0  0  0
   17.9219   19.8022   21.9588 H   0  0  0  0  0  0  0  0  0  0  0  0
   18.4579   19.5336   24.0468 C   0  0  0  0  0  0  0  0  0  0  0  0
   18.4595   20.5971   24.3148 H   0  0  0  0  0  0  0  0  0  0  0  0
   17.4559   19.1507   24.2735 H   0  0  0  0  0  0  0  0  0  0  0  0
   19.4431   18.8016   24.9535 C   0  0  0  0  0  0  0  0  0  0  0  0
   20.3040   19.4524   25.5125 O   0  5  0  0  0  0  0  0  0  0  0  0
   19.3116   17.6012   25.0909 O   0  0  0  0  0  0  0  0  0  0  0  0
  1  2  1  0  0  0  0
  1  3  1  0  0  0  0
  1  4  2  0  0  0  0
  4  5  1  0  0  0  0
  4  6  1  0  0  0  0
  6  7  1  0  0  0  0
  6  8  1  0  0  0  0
  6  9  1  0  0  0  0
  9 10  1  0  0  0  0
  9 11  1  0  0  0  0
  9 12  1  0  0  0  0
 12 13  1  0  0  0  0
 12 14  1  0  0  0  0
 12 15  1  0  0  0  0
 15 16  1  0  0  0  0
 15 17  1  0  0  0  0
 15 18  1  0  0  0  0
 18 19  1  0  0  0  0
 18 20  2  0  0  0  0
M  END
> <VM2 Rank>
35

> <Conf_Id>
559

> <Probability>
0.37

> <Sum Probability>
96.95

> <Delta G>
2.158

> <G>
-19.731

> <E>
-35.156

> <-TS>
15.425

> <U+W>
-51.253

> <U>
10.179

> <W>
-61.431

> <W(PB)>
-63.627

> <W(SA)>
2.195

> <Valence>
9.483

> <Coulomb>
0.361

> <VdW>
0.335

> <VdW6>
-7.385

> <VdW12>
7.720

> <Bond>
0.125

> <Angle>
2.487

> <Pdih>
6.870

> <Idih>
0.001

> <Tether>
0.000

$$$$
VeraChem MOL file


 20 19  0  0  0  0  0  0  0  0999 V2000     
   21.0592   18.2438   19.5375 C   0  0  0  0  0  0  0  0  0  0  0  0
   21.6353   19.1540   19.3795 H   0  0  0  0  0  0  0  0  0  0  0  0
   21.5329   17.2991   19.2762 H   0  0  0  0  0  0  0  0  0  0  0  0
   19.8205   18.2802   20.0359 C   0  0  0  0  0  0  0  0  0  0  0  0
   19.2619   17.3572   20.1891 H   0  0  0  0  0  0  0  0  0  0  0  0
   19.0979   19.5528   20.4233 C   0  0  0  0  0  0  0  0  0  0  0  0
   18.1163   19.5721   19.9314 H   0  0  0  0  0  0  0  0  0  0  0  0
   19.6440   20.4338   20.0596 H   0  0  0  0  0  0  0  0  0  0  0  0
   18.8919   19.6672   21.9505 C   0  0  0  0  0  0  0  0  0  0  0  0
   18.2600   20.5412   22.1595 H   0  0  0  0  0  0  0  0  0  0  0  0
   18.3395   18.7885   22.3111 H   0  0  0  0  0  0  0  0  0  0  0  0
   20.2246   19.8067   22.7236 C   0  0  0  0  0  0  0  0  0  0  0  0
   20.7841   20.6650   22.3280 H   0  0  0  0  0  0  0  0  0  0  0  0
   20.8500   18.9188   22.5568 H   0  0  0  0  0  0  0  0  0  0  0  0
   20.0120   20.0021   24.2473 C   0  0  0  0  0  0  0  0  0  0  0  0
   20.9751   20.2115   24.7275 H   0  0  0  0  0  0  0  0  0  0  0  0
   19.3693   20.8713   24.4322 H   0  0  0  0  0  0  0  0  0  0  0  0
   19.4053   18.7902   24.9486 C   0  0  0  0  0  0  0  0  0  0  0  0
   20.1327   17.8487   25.1968 O   0  5  0  0  0  0  0  0  0  0  0  0
   18.2270   18.8262   25.2446 O   0  0  0  0  0  0  0  0  0  0  0  0
  1  2  1  0  0  0  0
  1  3  1  0  0  0  0
  1  4  2  0  0  0  0
  4  5  1  0  0  0  0
  4  6  1  0  0  0  0
  6  7  1  0  0  0  0
  6  8  1  0  0  0  0
  6  9  1  0  0  0  0
  9 10  1  0  0  0  0
  9 11  1  0  0  0  0
  9 12  1  0  0  0  0
 12 13  1  0  0  0  0
 12 14  1  0  0  0  0
 12 15  1  0  0  0  0
 15 16  1  0  0  0  0
 15 17  1  0  0  0  0
 15 18  1  0  0  0  0
 18 19  1  0  0  0  0
 18 20  2  0  0  0  0
M  END
> <VM2 Rank>
36

> <Conf_Id>
699

> <Probability>
0.36

> <Sum Probability>
97.31

> <Delta G>
2.170

> <G>
-19.719

> <E>
-35.144

> <-TS>
15.425

> <U+W>
-51.241

> <U>
10.179

> <W>
-61.419

> <W(PB)>
-63.642

> <W(SA)>
2.222

> <Valence>
9.483

> <Coulomb>
0.360

> <VdW>
0.335

> <VdW6>
-7.385

> <VdW12>
7.720

> <Bond>
0.125

> <Angle>
2.487

> <Pdih>
6.870

> <Idih>
0.001

> <Tether>
0.000

$$$$
VeraChem MOL file


 20 19  0  0  0  0  0  0  0  0999 V2000     
   20.4993   17.6632   19.6772 C   0  0  0  0  0  0  0  0  0  0  0  0
   20.4971   16.5790   19.5804 H   0  0  0  0  0  0  0  0  0  0  0  0
   21.3618   18.2007   19.2865 H   0  0  0  0  0  0  0  0  0  0  0  0
   19.4826   18.3074   20.2560 C   0  0  0  0  0  0  0  0  0  0  0  0
   18.6241   17.7527   20.6328 H   0  0  0  0  0  0  0  0  0  0  0  0
   19.4136   19.8115   20.4127 C   0  0  0  0  0  0  0  0  0  0  0  0
   18.3766   20.1289   20.5850 H   0  0  0  0  0  0  0  0  0  0  0  0
   19.7127   20.2742   19.4626 H   0  0  0  0  0  0  0  0  0  0  0  0
   20.3294   20.3599   21.5351 C   0  0  0  0  0  0  0  0  0  0  0  0
   21.3224   19.8943   21.4710 H   0  0  0  0  0  0  0  0  0  0  0  0
   20.4866   21.4310   21.3485 H   0  0  0  0  0  0  0  0  0  0  0  0
   19.7635   20.2112   22.9700 C   0  0  0  0  0  0  0  0  0  0  0  0
   18.7648   20.6657   23.0266 H   0  0  0  0  0  0  0  0  0  0  0  0
   20.4024   20.7874   23.6536 H   0  0  0  0  0  0  0  0  0  0  0  0
   19.6974   18.7489   23.4804 C   0  0  0  0  0  0  0  0  0  0  0  0
   18.9549   18.1771   22.9149 H   0  0  0  0  0  0  0  0  0  0  0  0
   20.6663   18.2544   23.3424 H   0  0  0  0  0  0  0  0  0  0  0  0
   19.3227   18.6552   24.9550 C   0  0  0  0  0  0  0  0  0  0  0  0
   20.2186   18.6582   25.7760 O   0  5  0  0  0  0  0  0  0  0  0  0
   18.1439   18.6024   25.2456 O   0  0  0  0  0  0  0  0  0  0  0  0
  1  2  1  0  0  0  0
  1  3  1  0  0  0  0
  1  4  2  0  0  0  0
  4  5  1  0  0  0  0
  4  6  1  0  0  0  0
  6  7  1  0  0  0  0
  6  8  1  0  0  0  0
  6  9  1  0  0  0  0
  9 10  1  0  0  0  0
  9 11  1  0  0  0  0
  9 12  1  0  0  0  0
 12 13  1  0  0  0  0
 12 14  1  0  0  0  0
 12 15  1  0  0  0  0
 15 16  1  0  0  0  0
 15 17  1  0  0  0  0
 15 18  1  0  0  0  0
 18 19  1  0  0  0  0
 18 20  2  0  0  0  0
M  END
> <VM2 Rank>
37

> <Conf_Id>
108

> <Probability>
0.22

> <Sum Probability>
97.53

> <Delta G>
2.453

> <G>
-19.436

> <E>
-34.098

> <-TS>
14.662

> <U+W>
-50.195

> <U>
10.643

> <W>
-60.838

> <W(PB)>
-62.995

> <W(SA)>
2.157

> <Valence>
11.231

> <Coulomb>
-1.077

> <VdW>
0.490

> <VdW6>
-7.546

> <VdW12>
8.035

> <Bond>
0.159

> <Angle>
3.005

> <Pdih>
8.065

> <Idih>
0.002

> <Tether>
0.000

$$$$
VeraChem MOL file


 20 19  0  0  0  0  0  0  0  0999 V2000     
   19.4452   19.9236   19.2820 C   0  0  0  0  0  0  0  0  0  0  0  0
   19.5126   20.4657   18.3404 H   0  0  0  0  0  0  0  0  0  0  0  0
   18.4478   19.7627   19.6855 H   0  0  0  0  0  0  0  0  0  0  0  0
   20.5488   19.4878   19.9001 C   0  0  0  0  0  0  0  0  0  0  0  0
   21.5210   19.6817   19.4476 H   0  0  0  0  0  0  0  0  0  0  0  0
   20.6141   18.7206   21.2103 C   0  0  0  0  0  0  0  0  0  0  0  0
   21.1758   19.3225   21.9362 H   0  0  0  0  0  0  0  0  0  0  0  0
   21.2066   17.8093   21.0544 H   0  0  0  0  0  0  0  0  0  0  0  0
   19.2397   18.3313   21.8086 C   0  0  0  0  0  0  0  0  0  0  0  0
   18.6722   19.2402   22.0517 H   0  0  0  0  0  0  0  0  0  0  0  0
   18.6586   17.7915   21.0486 H   0  0  0  0  0  0  0  0  0  0  0  0
   19.3455   17.4323   23.0654 C   0  0  0  0  0  0  0  0  0  0  0  0
   19.8699   16.5036   22.8029 H   0  0  0  0  0  0  0  0  0  0  0  0
   18.3333   17.1365   23.3740 H   0  0  0  0  0  0  0  0  0  0  0  0
   20.0599   18.0960   24.2744 C   0  0  0  0  0  0  0  0  0  0  0  0
   20.0972   17.3852   25.1081 H   0  0  0  0  0  0  0  0  0  0  0  0
   21.0998   18.3363   24.0260 H   0  0  0  0  0  0  0  0  0  0  0  0
   19.3748   19.3596   24.7872 C   0  0  0  0  0  0  0  0  0  0  0  0
   19.9311   20.4263   24.6154 O   0  5  0  0  0  0  0  0  0  0  0  0
   18.3118   19.2405   25.3645 O   0  0  0  0  0  0  0  0  0  0  0  0
  1  2  1  0  0  0  0
  1  3  1  0  0  0  0
  1  4  2  0  0  0  0
  4  5  1  0  0  0  0
  4  6  1  0  0  0  0
  6  7  1  0  0  0  0
  6  8  1  0  0  0  0
  6  9  1  0  0  0  0
  9 10  1  0  0  0  0
  9 11  1  0  0  0  0
  9 12  1  0  0  0  0
 12 13  1  0  0  0  0
 12 14  1  0  0  0  0
 12 15  1  0  0  0  0
 15 16  1  0  0  0  0
 15 17  1  0  0  0  0
 15 18  1  0  0  0  0
 18 19  1  0  0  0  0
 18 20  2  0  0  0  0
M  END
> <VM2 Rank>
38

> <Conf_Id>
320

> <Probability>
0.22

> <Sum Probability>
97.75

> <Delta G>
2.467

> <G>
-19.422

> <E>
-35.131

> <-TS>
15.709

> <U+W>
-51.227

> <U>
10.870

> <W>
-62.097

> <W(PB)>
-64.246

> <W(SA)>
2.149

> <Valence>
8.803

> <Coulomb>
1.019

> <VdW>
1.048

> <VdW6>
-8.312

> <VdW12>
9.360

> <Bond>
0.212

> <Angle>
3.379

> <Pdih>
5.211

> <Idih>
0.001

> <Tether>
0.000

$$$$
VeraChem MOL file


 20 19  0  0  0  0  0  0  0  0999 V2000     
   20.1142   20.1252   19.3683 C   0  0  0  0  0  0  0  0  0  0  0  0
   20.9115   20.5053   20.0033 H   0  0  0  0  0  0  0  0  0  0  0  0
   19.9842   20.6077   18.4011 H   0  0  0  0  0  0  0  0  0  0  0  0
   19.3180   19.1168   19.7413 C   0  0  0  0  0  0  0  0  0  0  0  0
   18.5344   18.7815   19.0622 H   0  0  0  0  0  0  0  0  0  0  0  0
   19.3776   18.3479   21.0508 C   0  0  0  0  0  0  0  0  0  0  0  0
   19.4325   17.2746   20.8255 H   0  0  0  0  0  0  0  0  0  0  0  0
   18.4283   18.4944   21.5817 H   0  0  0  0  0  0  0  0  0  0  0  0
   20.5578   18.7286   21.9786 C   0  0  0  0  0  0  0  0  0  0  0  0
   21.4969   18.6470   21.4147 H   0  0  0  0  0  0  0  0  0  0  0  0
   20.4638   19.7802   22.2828 H   0  0  0  0  0  0  0  0  0  0  0  0
   20.6690   17.8312   23.2361 C   0  0  0  0  0  0  0  0  0  0  0  0
   21.5739   18.1132   23.7920 H   0  0  0  0  0  0  0  0  0  0  0  0
   20.8130   16.7878   22.9245 H   0  0  0  0  0  0  0  0  0  0  0  0
   19.4504   17.9123   24.1958 C   0  0  0  0  0  0  0  0  0  0  0  0
   18.5394   17.5647   23.6956 H   0  0  0  0  0  0  0  0  0  0  0  0
   19.6130   17.2393   25.0456 H   0  0  0  0  0  0  0  0  0  0  0  0
   19.1953   19.3055   24.7640 C   0  0  0  0  0  0  0  0  0  0  0  0
   19.9825   19.7440   25.5798 O   0  5  0  0  0  0  0  0  0  0  0  0
   18.2063   19.9065   24.3932 O   0  0  0  0  0  0  0  0  0  0  0  0
  1  2  1  0  0  0  0
  1  3  1  0  0  0  0
  1  4  2  0  0  0  0
  4  5  1  0  0  0  0
  4  6  1  0  0  0  0
  6  7  1  0  0  0  0
  6  8  1  0  0  0  0
  6  9  1  0  0  0  0
  9 10  1  0  0  0  0
  9 11  1  0  0  0  0
  9 12  1  0  0  0  0
 12 13  1  0  0  0  0
 12 14  1  0  0  0  0
 12 15  1  0  0  0  0
 15 16  1  0  0  0  0
 15 17  1  0  0  0  0
 15 18  1  0  0  0  0
 18 19  1  0  0  0  0
 18 20  2  0  0  0  0
M  END
> <VM2 Rank>
39

> <Conf_Id>
848

> <Probability>
0.21

> <Sum Probability>
97.96

> <Delta G>
2.478

> <G>
-19.411

> <E>
-35.121

> <-TS>
15.710

> <U+W>
-51.218

> <U>
10.869

> <W>
-62.087

> <W(PB)>
-64.261

> <W(SA)>
2.174

> <Valence>
8.803

> <Coulomb>
1.018

> <VdW>
1.048

> <VdW6>
-8.312

> <VdW12>
9.360

> <Bond>
0.212

> <Angle>
3.379

> <Pdih>
5.211

> <Idih>
0.001

> <Tether>
0.000

$$$$
VeraChem MOL file


 20 19  0  0  0  0  0  0  0  0999 V2000     
   20.4033   17.6342   19.6647 C   0  0  0  0  0  0  0  0  0  0  0  0
   19.5067   17.6412   19.0471 H   0  0  0  0  0  0  0  0  0  0  0  0
   21.0181   16.7360   19.6475 H   0  0  0  0  0  0  0  0  0  0  0  0
   20.7368   18.6856   20.4178 C   0  0  0  0  0  0  0  0  0  0  0  0
   21.6428   18.6630   21.0223 H   0  0  0  0  0  0  0  0  0  0  0  0
   19.9368   19.9692   20.4802 C   0  0  0  0  0  0  0  0  0  0  0  0
   19.6651   20.2597   19.4563 H   0  0  0  0  0  0  0  0  0  0  0  0
   20.5595   20.7872   20.8664 H   0  0  0  0  0  0  0  0  0  0  0  0
   18.6389   19.8502   21.3171 C   0  0  0  0  0  0  0  0  0  0  0  0
   17.9725   20.6730   21.0243 H   0  0  0  0  0  0  0  0  0  0  0  0
   18.1072   18.9249   21.0564 H   0  0  0  0  0  0  0  0  0  0  0  0
   18.8418   19.9333   22.8511 C   0  0  0  0  0  0  0  0  0  0  0  0
   17.8540   20.0192   23.3249 H   0  0  0  0  0  0  0  0  0  0  0  0
   19.3861   20.8528   23.1066 H   0  0  0  0  0  0  0  0  0  0  0  0
   19.5720   18.7111   23.4642 C   0  0  0  0  0  0  0  0  0  0  0  0
   19.0925   17.7800   23.1395 H   0  0  0  0  0  0  0  0  0  0  0  0
   20.6134   18.6768   23.1288 H   0  0  0  0  0  0  0  0  0  0  0  0
   19.5817   18.7333   24.9884 C   0  0  0  0  0  0  0  0  0  0  0  0
   20.4929   19.3103   25.5485 O   0  5  0  0  0  0  0  0  0  0  0  0
   18.6667   18.1907   25.5760 O   0  0  0  0  0  0  0  0  0  0  0  0
  1  2  1  0  0  0  0
  1  3  1  0  0  0  0
  1  4  2  0  0  0  0
  4  5  1  0  0  0  0
  4  6  1  0  0  0  0
  6  7  1  0  0  0  0
  6  8  1  0  0  0  0
  6  9  1  0  0  0  0
  9 10  1  0  0  0  0
  9 11  1  0  0  0  0
  9 12  1  0  0  0  0
 12 13  1  0  0  0  0
 12 14  1  0  0  0  0
 12 15  1  0  0  0  0
 15 16  1  0  0  0  0
 15 17  1  0  0  0  0
 15 18  1  0  0  0  0
 18 19  1  0  0  0  0
 18 20  2  0  0  0  0
M  END
> <VM2 Rank>
40

> <Conf_Id>
662

> <Probability>
0.20

> <Sum Probability>
98.16

> <Delta G>
2.504

> <G>
-19.385

> <E>
-34.047

> <-TS>
14.662

> <U+W>
-50.143

> <U>
10.643

> <W>
-60.786

> <W(PB)>
-62.965

> <W(SA)>
2.179

> <Valence>
11.231

> <Coulomb>
-1.077

> <VdW>
0.490

> <VdW6>
-7.545

> <VdW12>
8.035

> <Bond>
0.159

> <Angle>
3.005

> <Pdih>
8.064

> <Idih>
0.002

> <Tether>
0.000

$$$$
VeraChem MOL file


 20 19  0  0  0  0  0  0  0  0999 V2000     
   19.9220   18.4958   18.7070 C   0  0  0  0  0  0  0  0  0  0  0  0
   19.9913   17.7230   17.9432 H   0  0  0  0  0  0  0  0  0  0  0  0
   20.1581   19.5164   18.4100 H   0  0  0  0  0  0  0  0  0  0  0  0
   19.5633   18.1987   19.9587 C   0  0  0  0  0  0  0  0  0  0  0  0
   19.3318   17.1705   20.2360 H   0  0  0  0  0  0  0  0  0  0  0  0
   19.4446   19.2165   21.0711 C   0  0  0  0  0  0  0  0  0  0  0  0
   18.4851   19.0764   21.5856 H   0  0  0  0  0  0  0  0  0  0  0  0
   19.4394   20.2338   20.6569 H   0  0  0  0  0  0  0  0  0  0  0  0
   20.6073   19.0753   22.0787 C   0  0  0  0  0  0  0  0  0  0  0  0
   20.5672   18.0832   22.5492 H   0  0  0  0  0  0  0  0  0  0  0  0
   21.5586   19.1183   21.5306 H   0  0  0  0  0  0  0  0  0  0  0  0
   20.6173   20.1740   23.1700 C   0  0  0  0  0  0  0  0  0  0  0  0
   20.7136   21.1581   22.6917 H   0  0  0  0  0  0  0  0  0  0  0  0
   21.5135   20.0458   23.7927 H   0  0  0  0  0  0  0  0  0  0  0  0
   19.3666   20.1758   24.0911 C   0  0  0  0  0  0  0  0  0  0  0  0
   19.4545   20.9894   24.8205 H   0  0  0  0  0  0  0  0  0  0  0  0
   18.4588   20.3764   23.5110 H   0  0  0  0  0  0  0  0  0  0  0  0
   19.1692   18.8821   24.8760 C   0  0  0  0  0  0  0  0  0  0  0  0
   19.9302   18.6481   25.7944 O   0  5  0  0  0  0  0  0  0  0  0  0
   18.2505   18.1516   24.5609 O   0  0  0  0  0  0  0  0  0  0  0  0
  1  2  1  0  0  0  0
  1  3  1  0  0  0  0
  1  4  2  0  0  0  0
  4  5  1  0  0  0  0
  4  6  1  0  0  0  0
  6  7  1  0  0  0  0
  6  8  1  0  0  0  0
  6  9  1  0  0  0  0
  9 10  1  0  0  0  0
  9 11  1  0  0  0  0
  9 12  1  0  0  0  0
 12 13  1  0  0  0  0
 12 14  1  0  0  0  0
 12 15  1  0  0  0  0
 15 16  1  0  0  0  0
 15 17  1  0  0  0  0
 15 18  1  0  0  0  0
 18 19  1  0  0  0  0
 18 20  2  0  0  0  0
M  END
> <VM2 Rank>
41

> <Conf_Id>
522

> <Probability>
0.20

> <Sum Probability>
98.36

> <Delta G>
2.520

> <G>
-19.369

> <E>
-34.753

> <-TS>
15.384

> <U+W>
-50.849

> <U>
10.197

> <W>
-61.045

> <W(PB)>
-63.242

> <W(SA)>
2.197

> <Valence>
9.837

> <Coulomb>
0.032

> <VdW>
0.328

> <VdW6>
-7.642

> <VdW12>
7.969

> <Bond>
0.151

> <Angle>
2.748

> <Pdih>
6.937

> <Idih>
0.001

> <Tether>
0.000

$$$$
VeraChem MOL file


 20 19  0  0  0  0  0  0  0  0999 V2000     
   19.7785   19.0698   18.6685 C   0  0  0  0  0  0  0  0  0  0  0  0
   20.4738   18.2501   18.4948 H   0  0  0  0  0  0  0  0  0  0  0  0
   19.5020   19.6823   17.8120 H   0  0  0  0  0  0  0  0  0  0  0  0
   19.2837   19.3190   19.8837 C   0  0  0  0  0  0  0  0  0  0  0  0
   18.5894   20.1450   20.0370 H   0  0  0  0  0  0  0  0  0  0  0  0
   19.6202   18.5127   21.1183 C   0  0  0  0  0  0  0  0  0  0  0  0
   20.1045   17.5683   20.8354 H   0  0  0  0  0  0  0  0  0  0  0  0
   18.6911   18.2510   21.6410 H   0  0  0  0  0  0  0  0  0  0  0  0
   20.5497   19.3067   22.0632 C   0  0  0  0  0  0  0  0  0  0  0  0
   21.4271   19.6453   21.4952 H   0  0  0  0  0  0  0  0  0  0  0  0
   20.0354   20.2149   22.4065 H   0  0  0  0  0  0  0  0  0  0  0  0
   21.0384   18.4872   23.2829 C   0  0  0  0  0  0  0  0  0  0  0  0
   21.7504   19.0969   23.8562 H   0  0  0  0  0  0  0  0  0  0  0  0
   21.5990   17.6114   22.9291 H   0  0  0  0  0  0  0  0  0  0  0  0
   19.9059   18.0160   24.2356 C   0  0  0  0  0  0  0  0  0  0  0  0
   19.2161   17.3428   23.7140 H   0  0  0  0  0  0  0  0  0  0  0  0
   20.3413   17.4368   25.0582 H   0  0  0  0  0  0  0  0  0  0  0  0
   19.1014   19.1537   24.8578 C   0  0  0  0  0  0  0  0  0  0  0  0
   19.6351   19.8296   25.7156 O   0  5  0  0  0  0  0  0  0  0  0  0
   17.9581   19.3233   24.4823 O   0  0  0  0  0  0  0  0  0  0  0  0
  1  2  1  0  0  0  0
  1  3  1  0  0  0  0
  1  4  2  0  0  0  0
  4  5  1  0  0  0  0
  4  6  1  0  0  0  0
  6  7  1  0  0  0  0
  6  8  1  0  0  0  0
  6  9  1  0  0  0  0
  9 10  1  0  0  0  0
  9 11  1  0  0  0  0
  9 12  1  0  0  0  0
 12 13  1  0  0  0  0
 12 14  1  0  0  0  0
 12 15  1  0  0  0  0
 15 16  1  0  0  0  0
 15 17  1  0  0  0  0
 15 18  1  0  0  0  0
 18 19  1  0  0  0  0
 18 20  2  0  0  0  0
M  END
> <VM2 Rank>
42

> <Conf_Id>
260

> <Probability>
0.18

> <Sum Probability>
98.55

> <Delta G>
2.566

> <G>
-19.323

> <E>
-34.707

> <-TS>
15.384

> <U+W>
-50.804

> <U>
10.196

> <W>
-60.999

> <W(PB)>
-63.181

> <W(SA)>
2.182

> <Valence>
9.837

> <Coulomb>
0.032

> <VdW>
0.328

> <VdW6>
-7.642

> <VdW12>
7.969

> <Bond>
0.151

> <Angle>
2.748

> <Pdih>
6.937

> <Idih>
0.001

> <Tether>
0.000

$$$$
VeraChem MOL file


 20 19  0  0  0  0  0  0  0  0999 V2000     
   20.5714   18.0501   19.4879 C   0  0  0  0  0  0  0  0  0  0  0  0
   20.6302   17.4255   18.5983 H   0  0  0  0  0  0  0  0  0  0  0  0
   21.1387   17.7236   20.3566 H   0  0  0  0  0  0  0  0  0  0  0  0
   19.8339   19.1662   19.4927 C   0  0  0  0  0  0  0  0  0  0  0  0
   19.2885   19.4436   18.5910 H   0  0  0  0  0  0  0  0  0  0  0  0
   19.6515   20.1327   20.6526 C   0  0  0  0  0  0  0  0  0  0  0  0
   18.6000   20.4477   20.6895 H   0  0  0  0  0  0  0  0  0  0  0  0
   20.2187   21.0480   20.4374 H   0  0  0  0  0  0  0  0  0  0  0  0
   20.0537   19.6040   22.0518 C   0  0  0  0  0  0  0  0  0  0  0  0
   21.0953   19.2570   22.0399 H   0  0  0  0  0  0  0  0  0  0  0  0
   20.0227   20.4430   22.7604 H   0  0  0  0  0  0  0  0  0  0  0  0
   19.1161   18.4835   22.5630 C   0  0  0  0  0  0  0  0  0  0  0  0
   19.1089   17.6513   21.8475 H   0  0  0  0  0  0  0  0  0  0  0  0
   18.0848   18.8589   22.6159 H   0  0  0  0  0  0  0  0  0  0  0  0
   19.5377   17.9427   23.9539 C   0  0  0  0  0  0  0  0  0  0  0  0
   18.9150   17.0789   24.2151 H   0  0  0  0  0  0  0  0  0  0  0  0
   20.5752   17.5886   23.9235 H   0  0  0  0  0  0  0  0  0  0  0  0
   19.4030   18.9606   25.0828 C   0  0  0  0  0  0  0  0  0  0  0  0
   20.4136   19.4811   25.5126 O   0  5  0  0  0  0  0  0  0  0  0  0
   18.2903   19.1971   25.5107 O   0  0  0  0  0  0  0  0  0  0  0  0
  1  2  1  0  0  0  0
  1  3  1  0  0  0  0
  1  4  2  0  0  0  0
  4  5  1  0  0  0  0
  4  6  1  0  0  0  0
  6  7  1  0  0  0  0
  6  8  1  0  0  0  0
  6  9  1  0  0  0  0
  9 10  1  0  0  0  0
  9 11  1  0  0  0  0
  9 12  1  0  0  0  0
 12 13  1  0  0  0  0
 12 14  1  0  0  0  0
 12 15  1  0  0  0  0
 15 16  1  0  0  0  0
 15 17  1  0  0  0  0
 15 18  1  0  0  0  0
 18 19  1  0  0  0  0
 18 20  2  0  0  0  0
M  END
> <VM2 Rank>
43

> <Conf_Id>
768

> <Probability>
0.18

> <Sum Probability>
98.72

> <Delta G>
2.596

> <G>
-19.293

> <E>
-35.038

> <-TS>
15.744

> <U+W>
-51.134

> <U>
9.738

> <W>
-60.872

> <W(PB)>
-63.018

> <W(SA)>
2.145

> <Valence>
9.029

> <Coulomb>
-0.282

> <VdW>
0.990

> <VdW6>
-8.096

> <VdW12>
9.086

> <Bond>
0.190

> <Angle>
3.359

> <Pdih>
5.480

> <Idih>
0.000

> <Tether>
0.000

$$$$
VeraChem MOL file


 20 19  0  0  0  0  0  0  0  0999 V2000     
   20.1786   17.9318   19.4371 C   0  0  0  0  0  0  0  0  0  0  0  0
   19.6968   17.2889   20.1702 H   0  0  0  0  0  0  0  0  0  0  0  0
   20.6786   17.4403   18.6043 H   0  0  0  0  0  0  0  0  0  0  0  0
   20.1641   19.2658   19.5354 C   0  0  0  0  0  0  0  0  0  0  0  0
   20.6626   19.8581   18.7684 H   0  0  0  0  0  0  0  0  0  0  0  0
   19.5144   20.0914   20.6350 C   0  0  0  0  0  0  0  0  0  0  0  0
   18.6091   20.5626   20.2298 H   0  0  0  0  0  0  0  0  0  0  0  0
   20.1815   20.9246   20.8937 H   0  0  0  0  0  0  0  0  0  0  0  0
   19.1523   19.3320   21.9355 C   0  0  0  0  0  0  0  0  0  0  0  0
   18.5553   20.0003   22.5711 H   0  0  0  0  0  0  0  0  0  0  0  0
   18.5046   18.4758   21.7056 H   0  0  0  0  0  0  0  0  0  0  0  0
   20.3987   18.8700   22.7284 C   0  0  0  0  0  0  0  0  0  0  0  0
   21.0131   19.7415   22.9935 H   0  0  0  0  0  0  0  0  0  0  0  0
   21.0242   18.2284   22.0946 H   0  0  0  0  0  0  0  0  0  0  0  0
   20.0295   18.0908   24.0174 C   0  0  0  0  0  0  0  0  0  0  0  0
   19.3931   17.2323   23.7712 H   0  0  0  0  0  0  0  0  0  0  0  0
   20.9405   17.6894   24.4764 H   0  0  0  0  0  0  0  0  0  0  0  0
   19.3210   18.9359   25.0722 C   0  0  0  0  0  0  0  0  0  0  0  0
   19.9894   19.7092   25.7299 O   0  5  0  0  0  0  0  0  0  0  0  0
   18.1231   18.7909   25.2171 O   0  0  0  0  0  0  0  0  0  0  0  0
  1  2  1  0  0  0  0
  1  3  1  0  0  0  0
  1  4  2  0  0  0  0
  4  5  1  0  0  0  0
  4  6  1  0  0  0  0
  6  7  1  0  0  0  0
  6  8  1  0  0  0  0
  6  9  1  0  0  0  0
  9 10  1  0  0  0  0
  9 11  1  0  0  0  0
  9 12  1  0  0  0  0
 12 13  1  0  0  0  0
 12 14  1  0  0  0  0
 12 15  1  0  0  0  0
 15 16  1  0  0  0  0
 15 17  1  0  0  0  0
 15 18  1  0  0  0  0
 18 19  1  0  0  0  0
 18 20  2  0  0  0  0
M  END
> <VM2 Rank>
44

> <Conf_Id>
74

> <Probability>
0.17

> <Sum Probability>
98.89

> <Delta G>
2.627

> <G>
-19.262

> <E>
-35.007

> <-TS>
15.745

> <U+W>
-51.104

> <U>
9.738

> <W>
-60.842

> <W(PB)>
-63.013

> <W(SA)>
2.172

> <Valence>
9.029

> <Coulomb>
-0.281

> <VdW>
0.990

> <VdW6>
-8.096

> <VdW12>
9.086

> <Bond>
0.190

> <Angle>
3.359

> <Pdih>
5.480

> <Idih>
0.000

> <Tether>
0.000

$$$$
VeraChem MOL file


 20 19  0  0  0  0  0  0  0  0999 V2000     
   19.8184   17.4133   19.5527 C   0  0  0  0  0  0  0  0  0  0  0  0
   19.2344   16.7882   20.2266 H   0  0  0  0  0  0  0  0  0  0  0  0
   20.2560   16.9350   18.6781 H   0  0  0  0  0  0  0  0  0  0  0  0
   19.9962   18.7157   19.7890 C   0  0  0  0  0  0  0  0  0  0  0  0
   20.5852   19.3243   19.1032 H   0  0  0  0  0  0  0  0  0  0  0  0
   19.4184   19.4473   20.9802 C   0  0  0  0  0  0  0  0  0  0  0  0
   18.6280   18.8410   21.4420 H   0  0  0  0  0  0  0  0  0  0  0  0
   18.9489   20.3815   20.6448 H   0  0  0  0  0  0  0  0  0  0  0  0
   20.5133   19.7605   22.0244 C   0  0  0  0  0  0  0  0  0  0  0  0
   20.9285   18.8196   22.4116 H   0  0  0  0  0  0  0  0  0  0  0  0
   21.3425   20.2813   21.5265 H   0  0  0  0  0  0  0  0  0  0  0  0
   20.0156   20.6383   23.1991 C   0  0  0  0  0  0  0  0  0  0  0  0
   19.6546   21.5982   22.8057 H   0  0  0  0  0  0  0  0  0  0  0  0
   20.8687   20.8742   23.8502 H   0  0  0  0  0  0  0  0  0  0  0  0
   18.8974   19.9881   24.0590 C   0  0  0  0  0  0  0  0  0  0  0  0
   18.6023   20.6819   24.8548 H   0  0  0  0  0  0  0  0  0  0  0  0
   18.0001   19.8088   23.4559 H   0  0  0  0  0  0  0  0  0  0  0  0
   19.3064   18.6789   24.7281 C   0  0  0  0  0  0  0  0  0  0  0  0
   20.1069   18.7284   25.6415 O   0  5  0  0  0  0  0  0  0  0  0  0
   18.7985   17.6475   24.3341 O   0  0  0  0  0  0  0  0  0  0  0  0
  1  2  1  0  0  0  0
  1  3  1  0  0  0  0
  1  4  2  0  0  0  0
  4  5  1  0  0  0  0
  4  6  1  0  0  0  0
  6  7  1  0  0  0  0
  6  8  1  0  0  0  0
  6  9  1  0  0  0  0
  9 10  1  0  0  0  0
  9 11  1  0  0  0  0
  9 12  1  0  0  0  0
 12 13  1  0  0  0  0
 12 14  1  0  0  0  0
 12 15  1  0  0  0  0
 15 16  1  0  0  0  0
 15 17  1  0  0  0  0
 15 18  1  0  0  0  0
 18 19  1  0  0  0  0
 18 20  2  0  0  0  0
M  END
> <VM2 Rank>
45

> <Conf_Id>
549

> <Probability>
0.14

> <Sum Probability>
99.03

> <Delta G>
2.724

> <G>
-19.165

> <E>
-34.522

> <-TS>
15.358

> <U+W>
-50.619

> <U>
11.125

> <W>
-61.744

> <W(PB)>
-63.912

> <W(SA)>
2.168

> <Valence>
9.852

> <Coulomb>
0.993

> <VdW>
0.281

> <VdW6>
-7.706

> <VdW12>
7.986

> <Bond>
0.153

> <Angle>
2.748

> <Pdih>
6.950

> <Idih>
0.001

> <Tether>
0.000

$$$$
VeraChem MOL file


 20 19  0  0  0  0  0  0  0  0999 V2000     
   21.1164   17.8044   19.7204 C   0  0  0  0  0  0  0  0  0  0  0  0
   21.7699   17.5520   20.5541 H   0  0  0  0  0  0  0  0  0  0  0  0
   21.2279   17.2279   18.8037 H   0  0  0  0  0  0  0  0  0  0  0  0
   20.2096   18.7801   19.8166 C   0  0  0  0  0  0  0  0  0  0  0  0
   19.5637   19.0168   18.9713 H   0  0  0  0  0  0  0  0  0  0  0  0
   19.9994   19.6224   21.0553 C   0  0  0  0  0  0  0  0  0  0  0  0
   19.9476   20.6826   20.7739 H   0  0  0  0  0  0  0  0  0  0  0  0
   20.8587   19.5132   21.7300 H   0  0  0  0  0  0  0  0  0  0  0  0
   18.7033   19.2150   21.7909 C   0  0  0  0  0  0  0  0  0  0  0  0
   17.8675   19.2340   21.0780 H   0  0  0  0  0  0  0  0  0  0  0  0
   18.7905   18.1752   22.1356 H   0  0  0  0  0  0  0  0  0  0  0  0
   18.3527   20.1371   22.9846 C   0  0  0  0  0  0  0  0  0  0  0  0
   17.3851   19.8241   23.4007 H   0  0  0  0  0  0  0  0  0  0  0  0
   18.2127   21.1636   22.6197 H   0  0  0  0  0  0  0  0  0  0  0  0
   19.4074   20.1419   24.1249 C   0  0  0  0  0  0  0  0  0  0  0  0
   20.3685   20.5230   23.7615 H   0  0  0  0  0  0  0  0  0  0  0  0
   19.0821   20.8264   24.9168 H   0  0  0  0  0  0  0  0  0  0  0  0
   19.6348   18.7778   24.7703 C   0  0  0  0  0  0  0  0  0  0  0  0
   20.6975   18.2201   24.5790 O   0  5  0  0  0  0  0  0  0  0  0  0
   18.7500   18.3191   25.4661 O   0  0  0  0  0  0  0  0  0  0  0  0
  1  2  1  0  0  0  0
  1  3  1  0  0  0  0
  1  4  2  0  0  0  0
  4  5  1  0  0  0  0
  4  6  1  0  0  0  0
  6  7  1  0  0  0  0
  6  8  1  0  0  0  0
  6  9  1  0  0  0  0
  9 10  1  0  0  0  0
  9 11  1  0  0  0  0
  9 12  1  0  0  0  0
 12 13  1  0  0  0  0
 12 14  1  0  0  0  0
 12 15  1  0  0  0  0
 15 16  1  0  0  0  0
 15 17  1  0  0  0  0
 15 18  1  0  0  0  0
 18 19  1  0  0  0  0
 18 20  2  0  0  0  0
M  END
> <VM2 Rank>
46

> <Conf_Id>
558

> <Probability>
0.14

> <Sum Probability>
99.17

> <Delta G>
2.743

> <G>
-19.147

> <E>
-34.505

> <-TS>
15.358

> <U+W>
-50.601

> <U>
11.126

> <W>
-61.727

> <W(PB)>
-63.877

> <W(SA)>
2.149

> <Valence>
9.852

> <Coulomb>
0.993

> <VdW>
0.281

> <VdW6>
-7.706

> <VdW12>
7.987

> <Bond>
0.153

> <Angle>
2.748

> <Pdih>
6.950

> <Idih>
0.001

> <Tether>
0.000

$$$$
VeraChem MOL file


 20 19  0  0  0  0  0  0  0  0999 V2000     
   20.7733   17.7201   20.4912 C   0  0  0  0  0  0  0  0  0  0  0  0
   21.5716   17.1307   20.0438 H   0  0  0  0  0  0  0  0  0  0  0  0
   20.4342   17.4181   21.4800 H   0  0  0  0  0  0  0  0  0  0  0  0
   20.2447   18.7621   19.8395 C   0  0  0  0  0  0  0  0  0  0  0  0
   20.6255   19.0152   18.8504 H   0  0  0  0  0  0  0  0  0  0  0  0
   19.1338   19.6771   20.3312 C   0  0  0  0  0  0  0  0  0  0  0  0
   18.2240   19.4612   19.7556 H   0  0  0  0  0  0  0  0  0  0  0  0
   19.3924   20.7151   20.0823 H   0  0  0  0  0  0  0  0  0  0  0  0
   18.8055   19.6001   21.8428 C   0  0  0  0  0  0  0  0  0  0  0  0
   17.8912   20.1790   22.0315 H   0  0  0  0  0  0  0  0  0  0  0  0
   18.5705   18.5645   22.1226 H   0  0  0  0  0  0  0  0  0  0  0  0
   19.9394   20.1626   22.7336 C   0  0  0  0  0  0  0  0  0  0  0  0
   20.1344   21.2063   22.4527 H   0  0  0  0  0  0  0  0  0  0  0  0
   20.8726   19.6119   22.5557 H   0  0  0  0  0  0  0  0  0  0  0  0
   19.5938   20.1028   24.2440 C   0  0  0  0  0  0  0  0  0  0  0  0
   20.3704   20.6214   24.8184 H   0  0  0  0  0  0  0  0  0  0  0  0
   18.6506   20.6273   24.4386 H   0  0  0  0  0  0  0  0  0  0  0  0
   19.4864   18.6846   24.7976 C   0  0  0  0  0  0  0  0  0  0  0  0
   20.5152   18.0749   25.0139 O   0  5  0  0  0  0  0  0  0  0  0  0
   18.3788   18.2337   25.0142 O   0  0  0  0  0  0  0  0  0  0  0  0
  1  2  1  0  0  0  0
  1  3  1  0  0  0  0
  1  4  2  0  0  0  0
  4  5  1  0  0  0  0
  4  6  1  0  0  0  0
  6  7  1  0  0  0  0
  6  8  1  0  0  0  0
  6  9  1  0  0  0  0
  9 10  1  0  0  0  0
  9 11  1  0  0  0  0
  9 12  1  0  0  0  0
 12 13  1  0  0  0  0
 12 14  1  0  0  0  0
 12 15  1  0  0  0  0
 15 16  1  0  0  0  0
 15 17  1  0  0  0  0
 15 18  1  0  0  0  0
 18 19  1  0  0  0  0
 18 20  2  0  0  0  0
M  END
> <VM2 Rank>
47

> <Conf_Id>
748

> <Probability>
0.12

> <Sum Probability>
99.28

> <Delta G>
2.833

> <G>
-19.056

> <E>
-34.884

> <-TS>
15.828

> <U+W>
-50.980

> <U>
11.076

> <W>
-62.056

> <W(PB)>
-64.207

> <W(SA)>
2.151

> <Valence>
8.972

> <Coulomb>
1.263

> <VdW>
0.841

> <VdW6>
-8.354

> <VdW12>
9.194

> <Bond>
0.189

> <Angle>
3.355

> <Pdih>
5.428

> <Idih>
0.001

> <Tether>
0.000

$$$$
VeraChem MOL file


 20 19  0  0  0  0  0  0  0  0999 V2000     
   19.7322   17.3114   20.1645 C   0  0  0  0  0  0  0  0  0  0  0  0
   20.3190   16.3993   20.0709 H   0  0  0  0  0  0  0  0  0  0  0  0
   18.6497   17.2077   20.2175 H   0  0  0  0  0  0  0  0  0  0  0  0
   20.3215   18.5091   20.2150 C   0  0  0  0  0  0  0  0  0  0  0  0
   21.4069   18.5889   20.1609 H   0  0  0  0  0  0  0  0  0  0  0  0
   19.5753   19.8205   20.3440 C   0  0  0  0  0  0  0  0  0  0  0  0
   18.4901   19.6561   20.3863 H   0  0  0  0  0  0  0  0  0  0  0  0
   19.7618   20.4072   19.4347 H   0  0  0  0  0  0  0  0  0  0  0  0
   20.0297   20.6681   21.5582 C   0  0  0  0  0  0  0  0  0  0  0  0
   21.1261   20.6686   21.6280 H   0  0  0  0  0  0  0  0  0  0  0  0
   19.7404   21.7107   21.3680 H   0  0  0  0  0  0  0  0  0  0  0  0
   19.4097   20.2514   22.9157 C   0  0  0  0  0  0  0  0  0  0  0  0
   18.3138   20.2444   22.8388 H   0  0  0  0  0  0  0  0  0  0  0  0
   19.6608   21.0199   23.6599 H   0  0  0  0  0  0  0  0  0  0  0  0
   19.8998   18.8799   23.4458 C   0  0  0  0  0  0  0  0  0  0  0  0
   19.5373   18.0696   22.8056 H   0  0  0  0  0  0  0  0  0  0  0  0
   20.9954   18.8386   23.4381 H   0  0  0  0  0  0  0  0  0  0  0  0
   19.4236   18.5914   24.8649 C   0  0  0  0  0  0  0  0  0  0  0  0
   20.1408   18.9218   25.7887 O   0  5  0  0  0  0  0  0  0  0  0  0
   18.3384   18.0643   25.0112 O   0  0  0  0  0  0  0  0  0  0  0  0
  1  2  1  0  0  0  0
  1  3  1  0  0  0  0
  1  4  2  0  0  0  0
  4  5  1  0  0  0  0
  4  6  1  0  0  0  0
  6  7  1  0  0  0  0
  6  8  1  0  0  0  0
  6  9  1  0  0  0  0
  9 10  1  0  0  0  0
  9 11  1  0  0  0  0
  9 12  1  0  0  0  0
 12 13  1  0  0  0  0
 12 14  1  0  0  0  0
 12 15  1  0  0  0  0
 15 16  1  0  0  0  0
 15 17  1  0  0  0  0
 15 18  1  0  0  0  0
 18 19  1  0  0  0  0
 18 20  2  0  0  0  0
M  END
> <VM2 Rank>
48

> <Conf_Id>
63

> <Probability>
0.11

> <Sum Probability>
99.39

> <Delta G>
2.873

> <G>
-19.017

> <E>
-34.233

> <-TS>
15.216

> <U+W>
-50.329

> <U>
11.028

> <W>
-61.357

> <W(PB)>
-63.524

> <W(SA)>
2.167

> <Valence>
11.008

> <Coulomb>
-0.464

> <VdW>
0.484

> <VdW6>
-7.637

> <VdW12>
8.122

> <Bond>
0.158

> <Angle>
3.060

> <Pdih>
7.789

> <Idih>
0.001

> <Tether>
0.000

$$$$
VeraChem MOL file


 20 19  0  0  0  0  0  0  0  0999 V2000     
   18.8631   17.7063   20.0559 C   0  0  0  0  0  0  0  0  0  0  0  0
   19.4643   16.8376   20.3192 H   0  0  0  0  0  0  0  0  0  0  0  0
   17.8304   17.5300   19.7601 H   0  0  0  0  0  0  0  0  0  0  0  0
   19.3682   18.9423   20.0959 C   0  0  0  0  0  0  0  0  0  0  0  0
   18.7476   19.7972   19.8289 H   0  0  0  0  0  0  0  0  0  0  0  0
   20.7920   19.2677   20.4961 C   0  0  0  0  0  0  0  0  0  0  0  0
   21.2955   19.7105   19.6264 H   0  0  0  0  0  0  0  0  0  0  0  0
   21.3519   18.3558   20.7438 H   0  0  0  0  0  0  0  0  0  0  0  0
   20.8847   20.2796   21.6651 C   0  0  0  0  0  0  0  0  0  0  0  0
   21.8831   20.7370   21.6359 H   0  0  0  0  0  0  0  0  0  0  0  0
   20.1729   21.1017   21.5090 H   0  0  0  0  0  0  0  0  0  0  0  0
   20.6919   19.6687   23.0759 C   0  0  0  0  0  0  0  0  0  0  0  0
   20.9515   20.4333   23.8212 H   0  0  0  0  0  0  0  0  0  0  0  0
   21.3999   18.8419   23.2244 H   0  0  0  0  0  0  0  0  0  0  0  0
   19.2516   19.1745   23.3649 C   0  0  0  0  0  0  0  0  0  0  0  0
   18.5251   19.9613   23.1296 H   0  0  0  0  0  0  0  0  0  0  0  0
   19.0105   18.3090   22.7397 H   0  0  0  0  0  0  0  0  0  0  0  0
   19.0499   18.7611   24.8181 C   0  0  0  0  0  0  0  0  0  0  0  0
   18.6507   19.5991   25.6025 O   0  5  0  0  0  0  0  0  0  0  0  0
   19.3189   17.6187   25.1336 O   0  0  0  0  0  0  0  0  0  0  0  0
  1  2  1  0  0  0  0
  1  3  1  0  0  0  0
  1  4  2  0  0  0  0
  4  5  1  0  0  0  0
  4  6  1  0  0  0  0
  6  7  1  0  0  0  0
  6  8  1  0  0  0  0
  6  9  1  0  0  0  0
  9 10  1  0  0  0  0
  9 11  1  0  0  0  0
  9 12  1  0  0  0  0
 12 13  1  0  0  0  0
 12 14  1  0  0  0  0
 12 15  1  0  0  0  0
 15 16  1  0  0  0  0
 15 17  1  0  0  0  0
 15 18  1  0  0  0  0
 18 19  1  0  0  0  0
 18 20  2  0  0  0  0
M  END
> <VM2 Rank>
49

> <Conf_Id>
384

> <Probability>
0.11

> <Sum Probability>
99.50

> <Delta G>
2.879

> <G>
-19.010

> <E>
-34.226

> <-TS>
15.217

> <U+W>
-50.323

> <U>
11.028

> <W>
-61.351

> <W(PB)>
-63.501

> <W(SA)>
2.150

> <Valence>
11.008

> <Coulomb>
-0.464

> <VdW>
0.484

> <VdW6>
-7.638

> <VdW12>
8.122

> <Bond>
0.158

> <Angle>
3.060

> <Pdih>
7.789

> <Idih>
0.001

> <Tether>
0.000

$$$$
VeraChem MOL file


 20 19  0  0  0  0  0  0  0  0999 V2000     
   21.3393   19.7206   20.5987 C   0  0  0  0  0  0  0  0  0  0  0  0
   21.1803   20.0557   21.6216 H   0  0  0  0  0  0  0  0  0  0  0  0
   22.3402   19.8469   20.1898 H   0  0  0  0  0  0  0  0  0  0  0  0
   20.3627   19.1790   19.8620 C   0  0  0  0  0  0  0  0  0  0  0  0
   20.5828   18.8635   18.8425 H   0  0  0  0  0  0  0  0  0  0  0  0
   18.9241   18.9358   20.2914 C   0  0  0  0  0  0  0  0  0  0  0  0
   18.6092   17.9464   19.9338 H   0  0  0  0  0  0  0  0  0  0  0  0
   18.2777   19.6511   19.7656 H   0  0  0  0  0  0  0  0  0  0  0  0
   18.6421   19.0230   21.8118 C   0  0  0  0  0  0  0  0  0  0  0  0
   18.9751   19.9950   22.1993 H   0  0  0  0  0  0  0  0  0  0  0  0
   17.5552   18.9917   21.9676 H   0  0  0  0  0  0  0  0  0  0  0  0
   19.2894   17.8658   22.6104 C   0  0  0  0  0  0  0  0  0  0  0  0
   20.3774   17.8621   22.4618 H   0  0  0  0  0  0  0  0  0  0  0  0
   18.9180   16.9079   22.2223 H   0  0  0  0  0  0  0  0  0  0  0  0
   18.9840   17.9477   24.1284 C   0  0  0  0  0  0  0  0  0  0  0  0
   17.9006   17.9772   24.2965 H   0  0  0  0  0  0  0  0  0  0  0  0
   19.3586   17.0458   24.6267 H   0  0  0  0  0  0  0  0  0  0  0  0
   19.6181   19.1499   24.8224 C   0  0  0  0  0  0  0  0  0  0  0  0
   20.8073   19.1070   25.0693 O   0  5  0  0  0  0  0  0  0  0  0  0
   18.9039   20.0892   25.1137 O   0  0  0  0  0  0  0  0  0  0  0  0
  1  2  1  0  0  0  0
  1  3  1  0  0  0  0
  1  4  2  0  0  0  0
  4  5  1  0  0  0  0
  4  6  1  0  0  0  0
  6  7  1  0  0  0  0
  6  8  1  0  0  0  0
  6  9  1  0  0  0  0
  9 10  1  0  0  0  0
  9 11  1  0  0  0  0
  9 12  1  0  0  0  0
 12 13  1  0  0  0  0
 12 14  1  0  0  0  0
 12 15  1  0  0  0  0
 15 16  1  0  0  0  0
 15 17  1  0  0  0  0
 15 18  1  0  0  0  0
 18 19  1  0  0  0  0
 18 20  2  0  0  0  0
M  END
> <VM2 Rank>
50

> <Conf_Id>
507

> <Probability>
0.10

> <Sum Probability>
99.61

> <Delta G>
2.909

> <G>
-18.980

> <E>
-34.809

> <-TS>
15.829

> <U+W>
-50.905

> <U>
11.075

> <W>
-61.981

> <W(PB)>
-64.112

> <W(SA)>
2.131

> <Valence>
8.972

> <Coulomb>
1.262

> <VdW>
0.841

> <VdW6>
-8.354

> <VdW12>
9.195

> <Bond>
0.189

> <Angle>
3.355

> <Pdih>
5.428

> <Idih>
0.001

> <Tether>
0.000

$$$$
VeraChem MOL file


 20 19  0  0  0  0  0  0  0  0999 V2000     
   19.9932   18.6779   18.8433 C   0  0  0  0  0  0  0  0  0  0  0  0
   19.8278   19.6705   18.4275 H   0  0  0  0  0  0  0  0  0  0  0  0
   20.4025   17.9182   18.1795 H   0  0  0  0  0  0  0  0  0  0  0  0
   19.7090   18.3998   20.1182 C   0  0  0  0  0  0  0  0  0  0  0  0
   19.8797   17.3991   20.5141 H   0  0  0  0  0  0  0  0  0  0  0  0
   19.1339   19.4012   21.0969 C   0  0  0  0  0  0  0  0  0  0  0  0
   18.3170   18.9425   21.6689 H   0  0  0  0  0  0  0  0  0  0  0  0
   18.6813   20.2377   20.5477 H   0  0  0  0  0  0  0  0  0  0  0  0
   20.2042   19.9682   22.0601 C   0  0  0  0  0  0  0  0  0  0  0  0
   20.9654   20.4973   21.4706 H   0  0  0  0  0  0  0  0  0  0  0  0
   19.7376   20.7259   22.7044 H   0  0  0  0  0  0  0  0  0  0  0  0
   20.9069   18.9070   22.9455 C   0  0  0  0  0  0  0  0  0  0  0  0
   21.6607   19.4103   23.5665 H   0  0  0  0  0  0  0  0  0  0  0  0
   21.4594   18.2049   22.3072 H   0  0  0  0  0  0  0  0  0  0  0  0
   19.9506   18.1085   23.8730 C   0  0  0  0  0  0  0  0  0  0  0  0
   19.2303   17.5324   23.2811 H   0  0  0  0  0  0  0  0  0  0  0  0
   20.5303   17.3797   24.4511 H   0  0  0  0  0  0  0  0  0  0  0  0
   19.1840   18.9730   24.8698 C   0  0  0  0  0  0  0  0  0  0  0  0
   19.7971   19.4474   25.8060 O   0  5  0  0  0  0  0  0  0  0  0  0
   17.9922   19.1349   24.6952 O   0  0  0  0  0  0  0  0  0  0  0  0
  1  2  1  0  0  0  0
  1  3  1  0  0  0  0
  1  4  2  0  0  0  0
  4  5  1  0  0  0  0
  4  6  1  0  0  0  0
  6  7  1  0  0  0  0
  6  8  1  0  0  0  0
  6  9  1  0  0  0  0
  9 10  1  0  0  0  0
  9 11  1  0  0  0  0
  9 12  1  0  0  0  0
 12 13  1  0  0  0  0
 12 14  1  0  0  0  0
 12 15  1  0  0  0  0
 15 16  1  0  0  0  0
 15 17  1  0  0  0  0
 15 18  1  0  0  0  0
 18 19  1  0  0  0  0
 18 20  2  0  0  0  0
M  END
> <VM2 Rank>
51

> <Conf_Id>
149

> <Probability>
0.07

> <Sum Probability>
99.68

> <Delta G>
3.139

> <G>
-18.750

> <E>
-34.410

> <-TS>
15.659

> <U+W>
-50.506

> <U>
10.403

> <W>
-60.909

> <W(PB)>
-63.052

> <W(SA)>
2.143

> <Valence>
10.022

> <Coulomb>
0.093

> <VdW>
0.289

> <VdW6>
-8.409

> <VdW12>
8.698

> <Bond>
0.179

> <Angle>
2.939

> <Pdih>
6.902

> <Idih>
0.001

> <Tether>
0.000

$$$$
VeraChem MOL file


 20 19  0  0  0  0  0  0  0  0999 V2000     
   20.4524   18.8164   18.9023 C   0  0  0  0  0  0  0  0  0  0  0  0
   20.1419   19.7653   18.4680 H   0  0  0  0  0  0  0  0  0  0  0  0
   20.6905   18.0053   18.2164 H   0  0  0  0  0  0  0  0  0  0  0  0
   20.5361   18.6490   20.2247 C   0  0  0  0  0  0  0  0  0  0  0  0
   20.8513   17.6918   20.6390 H   0  0  0  0  0  0  0  0  0  0  0  0
   20.2267   19.7305   21.2378 C   0  0  0  0  0  0  0  0  0  0  0  0
   20.2641   20.7146   20.7518 H   0  0  0  0  0  0  0  0  0  0  0  0
   21.0016   19.7513   22.0150 H   0  0  0  0  0  0  0  0  0  0  0  0
   18.8312   19.5543   21.8829 C   0  0  0  0  0  0  0  0  0  0  0  0
   18.6448   20.3965   22.5634 H   0  0  0  0  0  0  0  0  0  0  0  0
   18.0670   19.6237   21.0968 H   0  0  0  0  0  0  0  0  0  0  0  0
   18.6363   18.2226   22.6526 C   0  0  0  0  0  0  0  0  0  0  0  0
   18.7219   17.3797   21.9541 H   0  0  0  0  0  0  0  0  0  0  0  0
   17.6101   18.1894   23.0439 H   0  0  0  0  0  0  0  0  0  0  0  0
   19.6254   18.0106   23.8311 C   0  0  0  0  0  0  0  0  0  0  0  0
   19.4204   17.0451   24.3079 H   0  0  0  0  0  0  0  0  0  0  0  0
   20.6574   17.9627   23.4653 H   0  0  0  0  0  0  0  0  0  0  0  0
   19.5402   19.0804   24.9159 C   0  0  0  0  0  0  0  0  0  0  0  0
   20.4530   19.8769   25.0129 O   0  5  0  0  0  0  0  0  0  0  0  0
   18.5697   19.0773   25.6478 O   0  0  0  0  0  0  0  0  0  0  0  0
  1  2  1  0  0  0  0
  1  3  1  0  0  0  0
  1  4  2  0  0  0  0
  4  5  1  0  0  0  0
  4  6  1  0  0  0  0
  6  7  1  0  0  0  0
  6  8  1  0  0  0  0
  6  9  1  0  0  0  0
  9 10  1  0  0  0  0
  9 11  1  0  0  0  0
  9 12  1  0  0  0  0
 12 13  1  0  0  0  0
 12 14  1  0  0  0  0
 12 15  1  0  0  0  0
 15 16  1  0  0  0  0
 15 17  1  0  0  0  0
 15 18  1  0  0  0  0
 18 19  1  0  0  0  0
 18 20  2  0  0  0  0
M  END
> <VM2 Rank>
52

> <Conf_Id>
476

> <Probability>
0.07

> <Sum Probability>
99.75

> <Delta G>
3.152

> <G>
-18.737

> <E>
-34.396

> <-TS>
15.659

> <U+W>
-50.492

> <U>
10.403

> <W>
-60.895

> <W(PB)>
-63.043

> <W(SA)>
2.148

> <Valence>
10.022

> <Coulomb>
0.092

> <VdW>
0.289

> <VdW6>
-8.408

> <VdW12>
8.697

> <Bond>
0.179

> <Angle>
2.939

> <Pdih>
6.903

> <Idih>
0.001

> <Tether>
0.000

$$$$
VeraChem MOL file


 20 19  0  0  0  0  0  0  0  0999 V2000     
   19.8781   17.6414   19.7513 C   0  0  0  0  0  0  0  0  0  0  0  0
   19.3210   16.9683   20.4007 H   0  0  0  0  0  0  0  0  0  0  0  0
   20.4638   17.1943   18.9500 H   0  0  0  0  0  0  0  0  0  0  0  0
   19.8493   18.9648   19.9296 C   0  0  0  0  0  0  0  0  0  0  0  0
   20.4159   19.6210   19.2697 H   0  0  0  0  0  0  0  0  0  0  0  0
   19.0610   19.6585   21.0203 C   0  0  0  0  0  0  0  0  0  0  0  0
   18.3737   18.9569   21.5111 H   0  0  0  0  0  0  0  0  0  0  0  0
   18.4283   20.4327   20.5665 H   0  0  0  0  0  0  0  0  0  0  0  0
   19.9759   20.3256   22.0750 C   0  0  0  0  0  0  0  0  0  0  0  0
   20.5943   21.0859   21.5787 H   0  0  0  0  0  0  0  0  0  0  0  0
   19.3512   20.8671   22.7985 H   0  0  0  0  0  0  0  0  0  0  0  0
   20.9051   19.3437   22.8340 C   0  0  0  0  0  0  0  0  0  0  0  0
   21.5446   19.9194   23.5171 H   0  0  0  0  0  0  0  0  0  0  0  0
   21.5822   18.8557   22.1203 H   0  0  0  0  0  0  0  0  0  0  0  0
   20.1575   18.2545   23.6506 C   0  0  0  0  0  0  0  0  0  0  0  0
   19.5651   17.6141   22.9874 H   0  0  0  0  0  0  0  0  0  0  0  0
   20.8894   17.6013   24.1397 H   0  0  0  0  0  0  0  0  0  0  0  0
   19.2435   18.8092   24.7393 C   0  0  0  0  0  0  0  0  0  0  0  0
   19.7592   19.2853   25.7317 O   0  5  0  0  0  0  0  0  0  0  0  0
   18.0414   18.7350   24.5762 O   0  0  0  0  0  0  0  0  0  0  0  0
  1  2  1  0  0  0  0
  1  3  1  0  0  0  0
  1  4  2  0  0  0  0
  4  5  1  0  0  0  0
  4  6  1  0  0  0  0
  6  7  1  0  0  0  0
  6  8  1  0  0  0  0
  6  9  1  0  0  0  0
  9 10  1  0  0  0  0
  9 11  1  0  0  0  0
  9 12  1  0  0  0  0
 12 13  1  0  0  0  0
 12 14  1  0  0  0  0
 12 15  1  0  0  0  0
 15 16  1  0  0  0  0
 15 17  1  0  0  0  0
 15 18  1  0  0  0  0
 18 19  1  0  0  0  0
 18 20  2  0  0  0  0
M  END
> <VM2 Rank>
53

> <Conf_Id>
575

> <Probability>
0.05

> <Sum Probability>
99.80

> <Delta G>
3.318

> <G>
-18.571

> <E>
-34.354

> <-TS>
15.782

> <U+W>
-50.450

> <U>
10.910

> <W>
-61.360

> <W(PB)>
-63.493

> <W(SA)>
2.133

> <Valence>
9.972

> <Coulomb>
0.850

> <VdW>
0.088

> <VdW6>
-8.716

> <VdW12>
8.804

> <Bond>
0.178

> <Angle>
2.916

> <Pdih>
6.877

> <Idih>
0.001

> <Tether>
0.000

$$$$
VeraChem MOL file


 20 19  0  0  0  0  0  0  0  0999 V2000     
   20.5592   17.9886   19.1710 C   0  0  0  0  0  0  0  0  0  0  0  0
   21.5960   17.9342   19.4992 H   0  0  0  0  0  0  0  0  0  0  0  0
   20.3504   17.7520   18.1291 H   0  0  0  0  0  0  0  0  0  0  0  0
   19.5793   18.3340   20.0102 C   0  0  0  0  0  0  0  0  0  0  0  0
   18.5479   18.3832   19.6618 H   0  0  0  0  0  0  0  0  0  0  0  0
   19.7924   18.6746   21.4684 C   0  0  0  0  0  0  0  0  0  0  0  0
   20.7909   18.3517   21.7931 H   0  0  0  0  0  0  0  0  0  0  0  0
   19.0661   18.1198   22.0747 H   0  0  0  0  0  0  0  0  0  0  0  0
   19.6352   20.1918   21.7123 C   0  0  0  0  0  0  0  0  0  0  0  0
   20.2670   20.7279   20.9906 H   0  0  0  0  0  0  0  0  0  0  0  0
   18.6007   20.4944   21.5000 H   0  0  0  0  0  0  0  0  0  0  0  0
   20.0331   20.6495   23.1377 C   0  0  0  0  0  0  0  0  0  0  0  0
   20.0198   21.7478   23.1524 H   0  0  0  0  0  0  0  0  0  0  0  0
   21.0707   20.3573   23.3514 H   0  0  0  0  0  0  0  0  0  0  0  0
   19.0960   20.1430   24.2700 C   0  0  0  0  0  0  0  0  0  0  0  0
   19.2372   20.7704   25.1576 H   0  0  0  0  0  0  0  0  0  0  0  0
   18.0463   20.2528   23.9719 H   0  0  0  0  0  0  0  0  0  0  0  0
   19.3365   18.7030   24.7189 C   0  0  0  0  0  0  0  0  0  0  0  0
   20.4371   18.4066   25.1411 O   0  5  0  0  0  0  0  0  0  0  0  0
   18.4021   17.9268   24.6784 O   0  0  0  0  0  0  0  0  0  0  0  0
  1  2  1  0  0  0  0
  1  3  1  0  0  0  0
  1  4  2  0  0  0  0
  4  5  1  0  0  0  0
  4  6  1  0  0  0  0
  6  7  1  0  0  0  0
  6  8  1  0  0  0  0
  6  9  1  0  0  0  0
  9 10  1  0  0  0  0
  9 11  1  0  0  0  0
  9 12  1  0  0  0  0
 12 13  1  0  0  0  0
 12 14  1  0  0  0  0
 12 15  1  0  0  0  0
 15 16  1  0  0  0  0
 15 17  1  0  0  0  0
 15 18  1  0  0  0  0
 18 19  1  0  0  0  0
 18 20  2  0  0  0  0
M  END
> <VM2 Rank>
54

> <Conf_Id>
155

> <Probability>
0.03

> <Sum Probability>
99.83

> <Delta G>
3.643

> <G>
-18.246

> <E>
-33.770

> <-TS>
15.524

> <U+W>
-49.866

> <U>
11.756

> <W>
-61.622

> <W(PB)>
-63.782

> <W(SA)>
2.160

> <Valence>
10.982

> <Coulomb>
0.363

> <VdW>
0.411

> <VdW6>
-8.036

> <VdW12>
8.447

> <Bond>
0.168

> <Angle>
3.178

> <Pdih>
7.632

> <Idih>
0.005

> <Tether>
0.000

$$$$
VeraChem MOL file


 20 19  0  0  0  0  0  0  0  0999 V2000     
   20.1309   19.8870   19.0544 C   0  0  0  0  0  0  0  0  0  0  0  0
   19.8688   19.8880   17.9978 H   0  0  0  0  0  0  0  0  0  0  0  0
   21.0353   20.4181   19.3468 H   0  0  0  0  0  0  0  0  0  0  0  0
   19.3714   19.2555   19.9534 C   0  0  0  0  0  0  0  0  0  0  0  0
   18.4703   18.7289   19.6401 H   0  0  0  0  0  0  0  0  0  0  0  0
   19.6711   19.2114   21.4353 C   0  0  0  0  0  0  0  0  0  0  0  0
   18.7613   19.4684   21.9915 H   0  0  0  0  0  0  0  0  0  0  0  0
   20.4262   19.9661   21.6940 H   0  0  0  0  0  0  0  0  0  0  0  0
   20.1721   17.8129   21.8586 C   0  0  0  0  0  0  0  0  0  0  0  0
   19.3726   17.0741   21.7103 H   0  0  0  0  0  0  0  0  0  0  0  0
   20.9913   17.5187   21.1880 H   0  0  0  0  0  0  0  0  0  0  0  0
   20.6897   17.7392   23.3167 C   0  0  0  0  0  0  0  0  0  0  0  0
   21.4964   18.4700   23.4675 H   0  0  0  0  0  0  0  0  0  0  0  0
   21.1473   16.7509   23.4598 H   0  0  0  0  0  0  0  0  0  0  0  0
   19.5965   17.9243   24.4064 C   0  0  0  0  0  0  0  0  0  0  0  0
   18.7029   17.3421   24.1508 H   0  0  0  0  0  0  0  0  0  0  0  0
   19.9691   17.5259   25.3571 H   0  0  0  0  0  0  0  0  0  0  0  0
   19.1860   19.3703   24.6777 C   0  0  0  0  0  0  0  0  0  0  0  0
   20.0424   20.1560   25.0339 O   0  5  0  0  0  0  0  0  0  0  0  0
   18.0108   19.6616   24.5716 O   0  0  0  0  0  0  0  0  0  0  0  0
  1  2  1  0  0  0  0
  1  3  1  0  0  0  0
  1  4  2  0  0  0  0
  4  5  1  0  0  0  0
  4  6  1  0  0  0  0
  6  7  1  0  0  0  0
  6  8  1  0  0  0  0
  6  9  1  0  0  0  0
  9 10  1  0  0  0  0
  9 11  1  0  0  0  0
  9 12  1  0  0  0  0
 12 13  1  0  0  0  0
 12 14  1  0  0  0  0
 12 15  1  0  0  0  0
 15 16  1  0  0  0  0
 15 17  1  0  0  0  0
 15 18  1  0  0  0  0
 18 19  1  0  0  0  0
 18 20  2  0  0  0  0
M  END
> <VM2 Rank>
55

> <Conf_Id>
136

> <Probability>
0.03

> <Sum Probability>
99.86

> <Delta G>
3.700

> <G>
-18.189

> <E>
-33.713

> <-TS>
15.524

> <U+W>
-49.809

> <U>
11.755

> <W>
-61.564

> <W(PB)>
-63.745

> <W(SA)>
2.181

> <Valence>
10.983

> <Coulomb>
0.362

> <VdW>
0.411

> <VdW6>
-8.036

> <VdW12>
8.446

> <Bond>
0.168

> <Angle>
3.178

> <Pdih>
7.632

> <Idih>
0.005

> <Tether>
0.000

$$$$
VeraChem MOL file


 20 19  0  0  0  0  0  0  0  0999 V2000     
   19.9971   18.4111   19.0678 C   0  0  0  0  0  0  0  0  0  0  0  0
   19.1136   19.0435   19.0123 H   0  0  0  0  0  0  0  0  0  0  0  0
   20.3273   17.9458   18.1406 H   0  0  0  0  0  0  0  0  0  0  0  0
   20.6574   18.1989   20.2118 C   0  0  0  0  0  0  0  0  0  0  0  0
   21.5348   17.5526   20.2052 H   0  0  0  0  0  0  0  0  0  0  0  0
   20.3205   18.7767   21.5764 C   0  0  0  0  0  0  0  0  0  0  0  0
   21.2254   19.2342   21.9983 H   0  0  0  0  0  0  0  0  0  0  0  0
   20.0649   17.9475   22.2470 H   0  0  0  0  0  0  0  0  0  0  0  0
   19.1806   19.8245   21.5779 C   0  0  0  0  0  0  0  0  0  0  0  0
   19.4063   20.5910   20.8240 H   0  0  0  0  0  0  0  0  0  0  0  0
   18.2397   19.3485   21.2701 H   0  0  0  0  0  0  0  0  0  0  0  0
   18.9798   20.5393   22.9377 C   0  0  0  0  0  0  0  0  0  0  0  0
   18.2534   21.3490   22.7852 H   0  0  0  0  0  0  0  0  0  0  0  0
   19.9140   21.0273   23.2488 H   0  0  0  0  0  0  0  0  0  0  0  0
   18.4501   19.6297   24.0819 C   0  0  0  0  0  0  0  0  0  0  0  0
   18.0136   20.2598   24.8655 H   0  0  0  0  0  0  0  0  0  0  0  0
   17.6437   18.9848   23.7124 H   0  0  0  0  0  0  0  0  0  0  0  0
   19.5050   18.7628   24.7666 C   0  0  0  0  0  0  0  0  0  0  0  0
   20.4588   19.3130   25.2816 O   0  5  0  0  0  0  0  0  0  0  0  0
   19.3218   17.5619   24.8062 O   0  0  0  0  0  0  0  0  0  0  0  0
  1  2  1  0  0  0  0
  1  3  1  0  0  0  0
  1  4  2  0  0  0  0
  4  5  1  0  0  0  0
  4  6  1  0  0  0  0
  6  7  1  0  0  0  0
  6  8  1  0  0  0  0
  6  9  1  0  0  0  0
  9 10  1  0  0  0  0
  9 11  1  0  0  0  0
  9 12  1  0  0  0  0
 12 13  1  0  0  0  0
 12 14  1  0  0  0  0
 12 15  1  0  0  0  0
 15 16  1  0  0  0  0
 15 17  1  0  0  0  0
 15 18  1  0  0  0  0
 18 19  1  0  0  0  0
 18 20  2  0  0  0  0
M  END
> <VM2 Rank>
56

> <Conf_Id>
636

> <Probability>
0.03

> <Sum Probability>
99.88

> <Delta G>
3.740

> <G>
-18.149

> <E>
-34.012

> <-TS>
15.863

> <U+W>
-50.108

> <U>
11.478

> <W>
-61.586

> <W(PB)>
-63.744

> <W(SA)>
2.158

> <Valence>
9.963

> <Coulomb>
0.355

> <VdW>
1.159

> <VdW6>
-8.703

> <VdW12>
9.863

> <Bond>
0.227

> <Angle>
3.805

> <Pdih>
5.927

> <Idih>
0.005

> <Tether>
0.000

$$$$
VeraChem MOL file


 20 19  0  0  0  0  0  0  0  0999 V2000     
   19.6594   18.7854   19.0103 C   0  0  0  0  0  0  0  0  0  0  0  0
   20.1881   17.8527   19.1951 H   0  0  0  0  0  0  0  0  0  0  0  0
   19.3800   18.9958   17.9793 H   0  0  0  0  0  0  0  0  0  0  0  0
   19.3538   19.6438   19.9899 C   0  0  0  0  0  0  0  0  0  0  0  0
   18.8201   20.5614   19.7431 H   0  0  0  0  0  0  0  0  0  0  0  0
   19.6769   19.4900   21.4668 C   0  0  0  0  0  0  0  0  0  0  0  0
   18.7324   19.4244   22.0201 H   0  0  0  0  0  0  0  0  0  0  0  0
   20.1657   20.4087   21.8178 H   0  0  0  0  0  0  0  0  0  0  0  0
   20.5756   18.2783   21.8154 C   0  0  0  0  0  0  0  0  0  0  0  0
   20.0472   17.3450   21.5777 H   0  0  0  0  0  0  0  0  0  0  0  0
   21.4678   18.3062   21.1750 H   0  0  0  0  0  0  0  0  0  0  0  0
   21.0495   18.2453   23.2901 C   0  0  0  0  0  0  0  0  0  0  0  0
   21.5883   19.1715   23.5338 H   0  0  0  0  0  0  0  0  0  0  0  0
   21.7846   17.4349   23.3864 H   0  0  0  0  0  0  0  0  0  0  0  0
   19.9232   17.9969   24.3327 C   0  0  0  0  0  0  0  0  0  0  0  0
   19.2537   17.2002   23.9864 H   0  0  0  0  0  0  0  0  0  0  0  0
   20.3739   17.6435   25.2673 H   0  0  0  0  0  0  0  0  0  0  0  0
   19.0891   19.2238   24.6958 C   0  0  0  0  0  0  0  0  0  0  0  0
   19.6605   20.1978   25.1458 O   0  5  0  0  0  0  0  0  0  0  0  0
   17.8830   19.1567   24.5614 O   0  0  0  0  0  0  0  0  0  0  0  0
  1  2  1  0  0  0  0
  1  3  1  0  0  0  0
  1  4  2  0  0  0  0
  4  5  1  0  0  0  0
  4  6  1  0  0  0  0
  6  7  1  0  0  0  0
  6  8  1  0  0  0  0
  6  9  1  0  0  0  0
  9 10  1  0  0  0  0
  9 11  1  0  0  0  0
  9 12  1  0  0  0  0
 12 13  1  0  0  0  0
 12 14  1  0  0  0  0
 12 15  1  0  0  0  0
 15 16  1  0  0  0  0
 15 17  1  0  0  0  0
 15 18  1  0  0  0  0
 18 19  1  0  0  0  0
 18 20  2  0  0  0  0
M  END
> <VM2 Rank>
57

> <Conf_Id>
426

> <Probability>
0.03

> <Sum Probability>
99.91

> <Delta G>
3.748

> <G>
-18.141

> <E>
-34.005

> <-TS>
15.864

> <U+W>
-50.101

> <U>
11.477

> <W>
-61.578

> <W(PB)>
-63.708

> <W(SA)>
2.130

> <Valence>
9.963

> <Coulomb>
0.354

> <VdW>
1.159

> <VdW6>
-8.703

> <VdW12>
9.862

> <Bond>
0.227

> <Angle>
3.805

> <Pdih>
5.927

> <Idih>
0.004

> <Tether>
0.000

$$$$
VeraChem MOL file


 20 19  0  0  0  0  0  0  0  0999 V2000     
   18.7447   18.6777   19.2641 C   0  0  0  0  0  0  0  0  0  0  0  0
   18.7038   18.6701   18.1762 H   0  0  0  0  0  0  0  0  0  0  0  0
   17.9962   18.0942   19.7980 H   0  0  0  0  0  0  0  0  0  0  0  0
   19.6794   19.3751   19.9149 C   0  0  0  0  0  0  0  0  0  0  0  0
   20.4198   19.9527   19.3619 H   0  0  0  0  0  0  0  0  0  0  0  0
   19.7974   19.4344   21.4219 C   0  0  0  0  0  0  0  0  0  0  0  0
   18.8721   19.0640   21.8806 H   0  0  0  0  0  0  0  0  0  0  0  0
   19.9145   20.4787   21.7410 H   0  0  0  0  0  0  0  0  0  0  0  0
   20.9992   18.6005   21.9181 C   0  0  0  0  0  0  0  0  0  0  0  0
   20.8262   17.5388   21.6946 H   0  0  0  0  0  0  0  0  0  0  0  0
   21.8899   18.8939   21.3455 H   0  0  0  0  0  0  0  0  0  0  0  0
   21.3137   18.7749   23.4248 C   0  0  0  0  0  0  0  0  0  0  0  0
   21.4967   19.8345   23.6514 H   0  0  0  0  0  0  0  0  0  0  0  0
   22.2587   18.2546   23.6317 H   0  0  0  0  0  0  0  0  0  0  0  0
   20.2324   18.2063   24.3863 C   0  0  0  0  0  0  0  0  0  0  0  0
   19.8995   17.2195   24.0424 H   0  0  0  0  0  0  0  0  0  0  0  0
   20.6775   18.0595   25.3771 H   0  0  0  0  0  0  0  0  0  0  0  0
   19.0098   19.0984   24.5925 C   0  0  0  0  0  0  0  0  0  0  0  0
   19.1817   20.2231   25.0205 O   0  5  0  0  0  0  0  0  0  0  0  0
   17.9126   18.6278   24.3650 O   0  0  0  0  0  0  0  0  0  0  0  0
  1  2  1  0  0  0  0
  1  3  1  0  0  0  0
  1  4  2  0  0  0  0
  4  5  1  0  0  0  0
  4  6  1  0  0  0  0
  6  7  1  0  0  0  0
  6  8  1  0  0  0  0
  6  9  1  0  0  0  0
  9 10  1  0  0  0  0
  9 11  1  0  0  0  0
  9 12  1  0  0  0  0
 12 13  1  0  0  0  0
 12 14  1  0  0  0  0
 12 15  1  0  0  0  0
 15 16  1  0  0  0  0
 15 17  1  0  0  0  0
 15 18  1  0  0  0  0
 18 19  1  0  0  0  0
 18 20  2  0  0  0  0
M  END
> <VM2 Rank>
58

> <Conf_Id>
111

> <Probability>
0.03

> <Sum Probability>
99.93

> <Delta G>
3.749

> <G>
-18.140

> <E>
-33.654

> <-TS>
15.514

> <U+W>
-49.750

> <U>
12.063

> <W>
-61.813

> <W(PB)>
-64.015

> <W(SA)>
2.202

> <Valence>
10.981

> <Coulomb>
0.680

> <VdW>
0.402

> <VdW6>
-8.075

> <VdW12>
8.477

> <Bond>
0.169

> <Angle>
3.169

> <Pdih>
7.638

> <Idih>
0.005

> <Tether>
0.000

$$$$
VeraChem MOL file


 20 19  0  0  0  0  0  0  0  0999 V2000     
   20.2125   17.5708   19.4795 C   0  0  0  0  0  0  0  0  0  0  0  0
   19.7541   16.7689   20.0560 H   0  0  0  0  0  0  0  0  0  0  0  0
   20.4162   17.3786   18.4274 H   0  0  0  0  0  0  0  0  0  0  0  0
   20.5127   18.7467   20.0371 C   0  0  0  0  0  0  0  0  0  0  0  0
   20.9710   19.5367   19.4426 H   0  0  0  0  0  0  0  0  0  0  0  0
   20.2609   19.0851   21.4898 C   0  0  0  0  0  0  0  0  0  0  0  0
   21.1623   19.5382   21.9237 H   0  0  0  0  0  0  0  0  0  0  0  0
   20.0638   18.1658   22.0553 H   0  0  0  0  0  0  0  0  0  0  0  0
   19.0685   20.0563   21.6351 C   0  0  0  0  0  0  0  0  0  0  0  0
   19.2226   20.9050   20.9546 H   0  0  0  0  0  0  0  0  0  0  0  0
   18.1474   19.5586   21.3022 H   0  0  0  0  0  0  0  0  0  0  0  0
   18.8752   20.6137   23.0674 C   0  0  0  0  0  0  0  0  0  0  0  0
   18.0999   21.3905   23.0222 H   0  0  0  0  0  0  0  0  0  0  0  0
   19.7912   21.1205   23.4014 H   0  0  0  0  0  0  0  0  0  0  0  0
   18.4374   19.5599   24.1232 C   0  0  0  0  0  0  0  0  0  0  0  0
   18.0008   20.0780   24.9849 H   0  0  0  0  0  0  0  0  0  0  0  0
   17.6506   18.9154   23.7129 H   0  0  0  0  0  0  0  0  0  0  0  0
   19.5606   18.6830   24.6733 C   0  0  0  0  0  0  0  0  0  0  0  0
   20.5043   19.2258   25.2140 O   0  5  0  0  0  0  0  0  0  0  0  0
   19.4390   17.4767   24.5886 O   0  0  0  0  0  0  0  0  0  0  0  0
  1  2  1  0  0  0  0
  1  3  1  0  0  0  0
  1  4  2  0  0  0  0
  4  5  1  0  0  0  0
  4  6  1  0  0  0  0
  6  7  1  0  0  0  0
  6  8  1  0  0  0  0
  6  9  1  0  0  0  0
  9 10  1  0  0  0  0
  9 11  1  0  0  0  0
  9 12  1  0  0  0  0
 12 13  1  0  0  0  0
 12 14  1  0  0  0  0
 12 15  1  0  0  0  0
 15 16  1  0  0  0  0
 15 17  1  0  0  0  0
 15 18  1  0  0  0  0
 18 19  1  0  0  0  0
 18 20  2  0  0  0  0
M  END
> <VM2 Rank>
59

> <Conf_Id>
566

> <Probability>
0.03

> <Sum Probability>
99.96

> <Delta G>
3.756

> <G>
-18.134

> <E>
-33.648

> <-TS>
15.515

> <U+W>
-49.745

> <U>
12.064

> <W>
-61.809

> <W(PB)>
-63.984

> <W(SA)>
2.176

> <Valence>
10.980

> <Coulomb>
0.682

> <VdW>
0.402

> <VdW6>
-8.075

> <VdW12>
8.477

> <Bond>
0.169

> <Angle>
3.169

> <Pdih>
7.637

> <Idih>
0.005

> <Tether>
0.000

$$$$
VeraChem MOL file


 20 19  0  0  0  0  0  0  0  0999 V2000     
   19.5972   18.6110   19.2624 C   0  0  0  0  0  0  0  0  0  0  0  0
   19.0503   18.7528   18.3320 H   0  0  0  0  0  0  0  0  0  0  0  0
   19.8313   17.5875   19.5466 H   0  0  0  0  0  0  0  0  0  0  0  0
   19.9637   19.6587   20.0086 C   0  0  0  0  0  0  0  0  0  0  0  0
   19.7064   20.6642   19.6767 H   0  0  0  0  0  0  0  0  0  0  0  0
   20.7212   19.6074   21.3252 C   0  0  0  0  0  0  0  0  0  0  0  0
   20.3938   20.4420   21.9583 H   0  0  0  0  0  0  0  0  0  0  0  0
   21.7829   19.8062   21.1283 H   0  0  0  0  0  0  0  0  0  0  0  0
   20.5903   18.2885   22.1309 C   0  0  0  0  0  0  0  0  0  0  0  0
   20.9876   17.4561   21.5354 H   0  0  0  0  0  0  0  0  0  0  0  0
   21.2385   18.3536   23.0155 H   0  0  0  0  0  0  0  0  0  0  0  0
   19.1482   17.9478   22.5902 C   0  0  0  0  0  0  0  0  0  0  0  0
   19.1649   16.9818   23.1132 H   0  0  0  0  0  0  0  0  0  0  0  0
   18.5045   17.8072   21.7125 H   0  0  0  0  0  0  0  0  0  0  0  0
   18.5021   19.0074   23.5241 C   0  0  0  0  0  0  0  0  0  0  0  0
   18.3948   19.9658   23.0037 H   0  0  0  0  0  0  0  0  0  0  0  0
   17.4890   18.6854   23.7914 H   0  0  0  0  0  0  0  0  0  0  0  0
   19.2634   19.2391   24.8261 C   0  0  0  0  0  0  0  0  0  0  0  0
   19.8667   20.2853   24.9628 O   0  5  0  0  0  0  0  0  0  0  0  0
   19.2182   18.3728   25.6776 O   0  0  0  0  0  0  0  0  0  0  0  0
  1  2  1  0  0  0  0
  1  3  1  0  0  0  0
  1  4  2  0  0  0  0
  4  5  1  0  0  0  0
  4  6  1  0  0  0  0
  6  7  1  0  0  0  0
  6  8  1  0  0  0  0
  6  9  1  0  0  0  0
  9 10  1  0  0  0  0
  9 11  1  0  0  0  0
  9 12  1  0  0  0  0
 12 13  1  0  0  0  0
 12 14  1  0  0  0  0
 12 15  1  0  0  0  0
 15 16  1  0  0  0  0
 15 17  1  0  0  0  0
 15 18  1  0  0  0  0
 18 19  1  0  0  0  0
 18 20  2  0  0  0  0
M  END
> <VM2 Rank>
60

> <Conf_Id>
151

> <Probability>
0.02

> <Sum Probability>
99.98

> <Delta G>
3.817

> <G>
-18.072

> <E>
-33.930

> <-TS>
15.858

> <U+W>
-50.026

> <U>
11.092

> <W>
-61.118

> <W(PB)>
-63.251

> <W(SA)>
2.133

> <Valence>
9.664

> <Coulomb>
0.659

> <VdW>
0.768

> <VdW6>
-9.171

> <VdW12>
9.940

> <Bond>
0.244

> <Angle>
3.658

> <Pdih>
5.762

> <Idih>
0.001

> <Tether>
0.000

$$$$
VeraChem MOL file


 20 19  0  0  0  0  0  0  0  0999 V2000     
   21.5030   18.3183   20.3405 C   0  0  0  0  0  0  0  0  0  0  0  0
   22.0025   17.3511   20.3335 H   0  0  0  0  0  0  0  0  0  0  0  0
   22.1273   19.2060   20.2544 H   0  0  0  0  0  0  0  0  0  0  0  0
   20.1758   18.4090   20.4575 C   0  0  0  0  0  0  0  0  0  0  0  0
   19.5674   17.5087   20.5366 H   0  0  0  0  0  0  0  0  0  0  0  0
   19.4137   19.7155   20.4641 C   0  0  0  0  0  0  0  0  0  0  0  0
   18.4666   19.5966   19.9212 H   0  0  0  0  0  0  0  0  0  0  0  0
   19.9864   20.4702   19.9083 H   0  0  0  0  0  0  0  0  0  0  0  0
   19.1365   20.2633   21.8856 C   0  0  0  0  0  0  0  0  0  0  0  0
   20.0815   20.3915   22.4312 H   0  0  0  0  0  0  0  0  0  0  0  0
   18.7144   21.2714   21.7748 H   0  0  0  0  0  0  0  0  0  0  0  0
   18.1376   19.4158   22.7158 C   0  0  0  0  0  0  0  0  0  0  0  0
   17.3656   19.0014   22.0537 H   0  0  0  0  0  0  0  0  0  0  0  0
   17.6107   20.0782   23.4167 H   0  0  0  0  0  0  0  0  0  0  0  0
   18.7930   18.2713   23.5372 C   0  0  0  0  0  0  0  0  0  0  0  0
   18.0073   17.6513   23.9842 H   0  0  0  0  0  0  0  0  0  0  0  0
   19.3831   17.6114   22.8937 H   0  0  0  0  0  0  0  0  0  0  0  0
   19.6822   18.7589   24.6783 C   0  0  0  0  0  0  0  0  0  0  0  0
   20.8839   18.6060   24.5819 O   0  5  0  0  0  0  0  0  0  0  0  0
   19.1454   19.2600   25.6470 O   0  0  0  0  0  0  0  0  0  0  0  0
  1  2  1  0  0  0  0
  1  3  1  0  0  0  0
  1  4  2  0  0  0  0
  4  5  1  0  0  0  0
  4  6  1  0  0  0  0
  6  7  1  0  0  0  0
  6  8  1  0  0  0  0
  6  9  1  0  0  0  0
  9 10  1  0  0  0  0
  9 11  1  0  0  0  0
  9 12  1  0  0  0  0
 12 13  1  0  0  0  0
 12 14  1  0  0  0  0
 12 15  1  0  0  0  0
 15 16  1  0  0  0  0
 15 17  1  0  0  0  0
 15 18  1  0  0  0  0
 18 19  1  0  0  0  0
 18 20  2  0  0  0  0
M  END
> <VM2 Rank>
61

> <Conf_Id>
277

> <Probability>
0.00

> <Sum Probability>
99.98

> <Delta G>
4.998

> <G>
-16.891

> <E>
-32.109

> <-TS>
15.218

> <U+W>
-48.205

> <U>
14.182

> <W>
-62.387

> <W(PB)>
-64.528

> <W(SA)>
2.142

> <Valence>
11.820

> <Coulomb>
2.077

> <VdW>
0.285

> <VdW6>
-8.249

> <VdW12>
8.533

> <Bond>
0.194

> <Angle>
3.123

> <Pdih>
8.501

> <Idih>
0.002

> <Tether>
0.000

$$$$
VeraChem MOL file


 20 19  0  0  0  0  0  0  0  0999 V2000     
   21.2275   17.9081   20.2969 C   0  0  0  0  0  0  0  0  0  0  0  0
   20.6597   17.0228   20.0155 H   0  0  0  0  0  0  0  0  0  0  0  0
   22.3075   17.8042   20.3854 H   0  0  0  0  0  0  0  0  0  0  0  0
   20.6248   19.0764   20.5320 C   0  0  0  0  0  0  0  0  0  0  0  0
   21.2109   19.9527   20.8066 H   0  0  0  0  0  0  0  0  0  0  0  0
   19.1328   19.2974   20.4182 C   0  0  0  0  0  0  0  0  0  0  0  0
   18.7154   18.5793   19.6994 H   0  0  0  0  0  0  0  0  0  0  0  0
   18.9350   20.2927   19.9984 H   0  0  0  0  0  0  0  0  0  0  0  0
   18.3789   19.1368   21.7611 C   0  0  0  0  0  0  0  0  0  0  0  0
   17.3030   19.1718   21.5425 H   0  0  0  0  0  0  0  0  0  0  0  0
   18.5677   18.1399   22.1826 H   0  0  0  0  0  0  0  0  0  0  0  0
   18.6899   20.2392   22.8068 C   0  0  0  0  0  0  0  0  0  0  0  0
   17.8088   20.3739   23.4496 H   0  0  0  0  0  0  0  0  0  0  0  0
   18.8411   21.1999   22.2966 H   0  0  0  0  0  0  0  0  0  0  0  0
   19.9087   19.9334   23.7206 C   0  0  0  0  0  0  0  0  0  0  0  0
   20.8061   19.7316   23.1274 H   0  0  0  0  0  0  0  0  0  0  0  0
   20.1310   20.8145   24.3337 H   0  0  0  0  0  0  0  0  0  0  0  0
   19.6871   18.7656   24.6784 C   0  0  0  0  0  0  0  0  0  0  0  0
   20.2985   17.7335   24.4844 O   0  5  0  0  0  0  0  0  0  0  0  0
   18.9228   18.9275   25.6097 O   0  0  0  0  0  0  0  0  0  0  0  0
  1  2  1  0  0  0  0
  1  3  1  0  0  0  0
  1  4  2  0  0  0  0
  4  5  1  0  0  0  0
  4  6  1  0  0  0  0
  6  7  1  0  0  0  0
  6  8  1  0  0  0  0
  6  9  1  0  0  0  0
  9 10  1  0  0  0  0
  9 11  1  0  0  0  0
  9 12  1  0  0  0  0
 12 13  1  0  0  0  0
 12 14  1  0  0  0  0
 12 15  1  0  0  0  0
 15 16  1  0  0  0  0
 15 17  1  0  0  0  0
 15 18  1  0  0  0  0
 18 19  1  0  0  0  0
 18 20  2  0  0  0  0
M  END
> <VM2 Rank>
62

> <Conf_Id>
313

> <Probability>
0.00

> <Sum Probability>
99.99

> <Delta G>
5.003

> <G>
-16.886

> <E>
-32.102

> <-TS>
15.215

> <U+W>
-48.198

> <U>
14.187

> <W>
-62.385

> <W(PB)>
-64.531

> <W(SA)>
2.146

> <Valence>
11.819

> <Coulomb>
2.085

> <VdW>
0.283

> <VdW6>
-8.250

> <VdW12>
8.533

> <Bond>
0.194

> <Angle>
3.125

> <Pdih>
8.498

> <Idih>
0.002

> <Tether>
0.000

$$$$
VeraChem MOL file


 20 19  0  0  0  0  0  0  0  0999 V2000     
   20.5546   17.8491   19.6965 C   0  0  0  0  0  0  0  0  0  0  0  0
   20.0892   18.2744   18.8088 H   0  0  0  0  0  0  0  0  0  0  0  0
   21.3993   17.1788   19.5474 H   0  0  0  0  0  0  0  0  0  0  0  0
   20.1113   18.1382   20.9228 C   0  0  0  0  0  0  0  0  0  0  0  0
   20.5891   17.6995   21.7987 H   0  0  0  0  0  0  0  0  0  0  0  0
   18.9405   19.0546   21.2072 C   0  0  0  0  0  0  0  0  0  0  0  0
   18.2947   18.6135   21.9760 H   0  0  0  0  0  0  0  0  0  0  0  0
   18.3153   19.1426   20.3086 H   0  0  0  0  0  0  0  0  0  0  0  0
   19.3895   20.4727   21.6318 C   0  0  0  0  0  0  0  0  0  0  0  0
   19.9584   20.9173   20.8037 H   0  0  0  0  0  0  0  0  0  0  0  0
   18.5014   21.1055   21.7636 H   0  0  0  0  0  0  0  0  0  0  0  0
   20.2564   20.5383   22.9162 C   0  0  0  0  0  0  0  0  0  0  0  0
   20.6078   21.5731   23.0260 H   0  0  0  0  0  0  0  0  0  0  0  0
   21.1618   19.9270   22.8004 H   0  0  0  0  0  0  0  0  0  0  0  0
   19.5133   20.1461   24.2242 C   0  0  0  0  0  0  0  0  0  0  0  0
   20.0547   20.5646   25.0805 H   0  0  0  0  0  0  0  0  0  0  0  0
   18.5104   20.5894   24.2403 H   0  0  0  0  0  0  0  0  0  0  0  0
   19.3976   18.6452   24.4820 C   0  0  0  0  0  0  0  0  0  0  0  0
   20.4216   18.0047   24.6198 O   0  5  0  0  0  0  0  0  0  0  0  0
   18.2863   18.1691   24.6076 O   0  0  0  0  0  0  0  0  0  0  0  0
  1  2  1  0  0  0  0
  1  3  1  0  0  0  0
  1  4  2  0  0  0  0
  4  5  1  0  0  0  0
  4  6  1  0  0  0  0
  6  7  1  0  0  0  0
  6  8  1  0  0  0  0
  6  9  1  0  0  0  0
  9 10  1  0  0  0  0
  9 11  1  0  0  0  0
  9 12  1  0  0  0  0
 12 13  1  0  0  0  0
 12 14  1  0  0  0  0
 12 15  1  0  0  0  0
 15 16  1  0  0  0  0
 15 17  1  0  0  0  0
 15 18  1  0  0  0  0
 18 19  1  0  0  0  0
 18 20  2  0  0  0  0
M  END
> <VM2 Rank>
63

> <Conf_Id>
86

> <Probability>
0.00

> <Sum Probability>
99.99

> <Delta G>
5.030

> <G>
-16.859

> <E>
-33.012

> <-TS>
16.153

> <U+W>
-49.108

> <U>
13.083

> <W>
-62.191

> <W(PB)>
-64.313

> <W(SA)>
2.122

> <Valence>
11.309

> <Coulomb>
1.656

> <VdW>
0.119

> <VdW6>
-9.164

> <VdW12>
9.283

> <Bond>
0.195

> <Angle>
3.446

> <Pdih>
7.656

> <Idih>
0.011

> <Tether>
0.000

$$$$
VeraChem MOL file


 20 19  0  0  0  0  0  0  0  0999 V2000     
   20.2524   17.7581   19.6574 C   0  0  0  0  0  0  0  0  0  0  0  0
   19.9711   16.7485   19.3630 H   0  0  0  0  0  0  0  0  0  0  0  0
   20.6029   18.4293   18.8751 H   0  0  0  0  0  0  0  0  0  0  0  0
   20.1667   18.1549   20.9298 C   0  0  0  0  0  0  0  0  0  0  0  0
   19.8163   17.4665   21.6989 H   0  0  0  0  0  0  0  0  0  0  0  0
   20.5454   19.5381   21.4143 C   0  0  0  0  0  0  0  0  0  0  0  0
   21.2108   20.0151   20.6823 H   0  0  0  0  0  0  0  0  0  0  0  0
   21.1268   19.4667   22.3414 H   0  0  0  0  0  0  0  0  0  0  0  0
   19.3130   20.4496   21.6220 C   0  0  0  0  0  0  0  0  0  0  0  0
   19.6538   21.4526   21.9125 H   0  0  0  0  0  0  0  0  0  0  0  0
   18.8055   20.5700   20.6551 H   0  0  0  0  0  0  0  0  0  0  0  0
   18.2793   19.9425   22.6611 C   0  0  0  0  0  0  0  0  0  0  0  0
   17.9092   18.9469   22.3807 H   0  0  0  0  0  0  0  0  0  0  0  0
   17.4074   20.6086   22.6130 H   0  0  0  0  0  0  0  0  0  0  0  0
   18.7868   19.9271   24.1305 C   0  0  0  0  0  0  0  0  0  0  0  0
   19.3499   20.8425   24.3488 H   0  0  0  0  0  0  0  0  0  0  0  0
   17.9231   19.9221   24.8055 H   0  0  0  0  0  0  0  0  0  0  0  0
   19.6369   18.7173   24.5129 C   0  0  0  0  0  0  0  0  0  0  0  0
   20.7623   18.9156   24.9272 O   0  5  0  0  0  0  0  0  0  0  0  0
   19.1283   17.6148   24.4528 O   0  0  0  0  0  0  0  0  0  0  0  0
  1  2  1  0  0  0  0
  1  3  1  0  0  0  0
  1  4  2  0  0  0  0
  4  5  1  0  0  0  0
  4  6  1  0  0  0  0
  6  7  1  0  0  0  0
  6  8  1  0  0  0  0
  6  9  1  0  0  0  0
  9 10  1  0  0  0  0
  9 11  1  0  0  0  0
  9 12  1  0  0  0  0
 12 13  1  0  0  0  0
 12 14  1  0  0  0  0
 12 15  1  0  0  0  0
 15 16  1  0  0  0  0
 15 17  1  0  0  0  0
 15 18  1  0  0  0  0
 18 19  1  0  0  0  0
 18 20  2  0  0  0  0
M  END
> <VM2 Rank>
64

> <Conf_Id>
58

> <Probability>
0.00

> <Sum Probability>
99.99

> <Delta G>
5.104

> <G>
-16.785

> <E>
-32.937

> <-TS>
16.152

> <U+W>
-49.033

> <U>
13.083

> <W>
-62.117

> <W(PB)>
-64.210

> <W(SA)>
2.094

> <Valence>
11.308

> <Coulomb>
1.656

> <VdW>
0.119

> <VdW6>
-9.164

> <VdW12>
9.283

> <Bond>
0.195

> <Angle>
3.446

> <Pdih>
7.656

> <Idih>
0.011

> <Tether>
0.000

$$$$
VeraChem MOL file


 20 19  0  0  0  0  0  0  0  0999 V2000     
   21.1390   17.9351   20.3278 C   0  0  0  0  0  0  0  0  0  0  0  0
   20.4708   17.3501   19.6981 H   0  0  0  0  0  0  0  0  0  0  0  0
   22.1203   17.5157   20.5428 H   0  0  0  0  0  0  0  0  0  0  0  0
   20.7721   19.1202   20.8234 C   0  0  0  0  0  0  0  0  0  0  0  0
   21.4540   19.6855   21.4586 H   0  0  0  0  0  0  0  0  0  0  0  0
   19.4237   19.7617   20.5778 C   0  0  0  0  0  0  0  0  0  0  0  0
   18.7958   19.1222   19.9429 H   0  0  0  0  0  0  0  0  0  0  0  0
   19.5838   20.6909   20.0151 H   0  0  0  0  0  0  0  0  0  0  0  0
   18.6628   20.1176   21.8789 C   0  0  0  0  0  0  0  0  0  0  0  0
   19.3106   20.6999   22.5484 H   0  0  0  0  0  0  0  0  0  0  0  0
   17.8365   20.7880   21.6058 H   0  0  0  0  0  0  0  0  0  0  0  0
   18.0542   18.9053   22.6310 C   0  0  0  0  0  0  0  0  0  0  0  0
   17.5389   18.2515   21.9148 H   0  0  0  0  0  0  0  0  0  0  0  0
   17.2795   19.2752   23.3169 H   0  0  0  0  0  0  0  0  0  0  0  0
   19.0678   18.0688   23.4593 C   0  0  0  0  0  0  0  0  0  0  0  0
   18.5447   17.2236   23.9213 H   0  0  0  0  0  0  0  0  0  0  0  0
   19.8392   17.6365   22.8149 H   0  0  0  0  0  0  0  0  0  0  0  0
   19.7465   18.8466   24.5837 C   0  0  0  0  0  0  0  0  0  0  0  0
   20.9245   19.1225   24.4688 O   0  5  0  0  0  0  0  0  0  0  0  0
   19.0804   19.1404   25.5572 O   0  0  0  0  0  0  0  0  0  0  0  0
  1  2  1  0  0  0  0
  1  3  1  0  0  0  0
  1  4  2  0  0  0  0
  4  5  1  0  0  0  0
  4  6  1  0  0  0  0
  6  7  1  0  0  0  0
  6  8  1  0  0  0  0
  6  9  1  0  0  0  0
  9 10  1  0  0  0  0
  9 11  1  0  0  0  0
  9 12  1  0  0  0  0
 12 13  1  0  0  0  0
 12 14  1  0  0  0  0
 12 15  1  0  0  0  0
 15 16  1  0  0  0  0
 15 17  1  0  0  0  0
 15 18  1  0  0  0  0
 18 19  1  0  0  0  0
 18 20  2  0  0  0  0
M  END
> <VM2 Rank>
65

> <Conf_Id>
911

> <Probability>
0.00

> <Sum Probability>
99.99

> <Delta G>
5.330

> <G>
-16.559

> <E>
-32.231

> <-TS>
15.672

> <U+W>
-48.328

> <U>
13.662

> <W>
-61.989

> <W(PB)>
-64.088

> <W(SA)>
2.098

> <Valence>
11.349

> <Coulomb>
2.218

> <VdW>
0.094

> <VdW6>
-8.850

> <VdW12>
8.944

> <Bond>
0.196

> <Angle>
3.357

> <Pdih>
7.795

> <Idih>
0.001

> <Tether>
0.000

$$$$
VeraChem MOL file


 20 19  0  0  0  0  0  0  0  0999 V2000     
   19.5869   17.4674   20.1282 C   0  0  0  0  0  0  0  0  0  0  0  0
   20.5904   17.3858   19.7139 H   0  0  0  0  0  0  0  0  0  0  0  0
   18.9738   16.5680   20.1377 H   0  0  0  0  0  0  0  0  0  0  0  0
   19.1228   18.6233   20.6111 C   0  0  0  0  0  0  0  0  0  0  0  0
   18.1176   18.6807   21.0288 H   0  0  0  0  0  0  0  0  0  0  0  0
   19.9181   19.9103   20.6417 C   0  0  0  0  0  0  0  0  0  0  0  0
   19.4149   20.6396   19.9931 H   0  0  0  0  0  0  0  0  0  0  0  0
   20.9201   19.7615   20.2172 H   0  0  0  0  0  0  0  0  0  0  0  0
   20.0346   20.5310   22.0558 C   0  0  0  0  0  0  0  0  0  0  0  0
   20.3995   21.5602   21.9362 H   0  0  0  0  0  0  0  0  0  0  0  0
   19.0397   20.6185   22.5133 H   0  0  0  0  0  0  0  0  0  0  0  0
   21.0095   19.7960   23.0125 C   0  0  0  0  0  0  0  0  0  0  0  0
   21.2725   20.4788   23.8323 H   0  0  0  0  0  0  0  0  0  0  0  0
   21.9477   19.5804   22.4839 H   0  0  0  0  0  0  0  0  0  0  0  0
   20.4550   18.4869   23.6383 C   0  0  0  0  0  0  0  0  0  0  0  0
   20.2190   17.7508   22.8638 H   0  0  0  0  0  0  0  0  0  0  0  0
   21.2288   18.0327   24.2679 H   0  0  0  0  0  0  0  0  0  0  0  0
   19.2223   18.6886   24.5157 C   0  0  0  0  0  0  0  0  0  0  0  0
   19.3720   19.2288   25.5945 O   0  5  0  0  0  0  0  0  0  0  0  0
   18.1498   18.2856   24.1103 O   0  0  0  0  0  0  0  0  0  0  0  0
  1  2  1  0  0  0  0
  1  3  1  0  0  0  0
  1  4  2  0  0  0  0
  4  5  1  0  0  0  0
  4  6  1  0  0  0  0
  6  7  1  0  0  0  0
  6  8  1  0  0  0  0
  6  9  1  0  0  0  0
  9 10  1  0  0  0  0
  9 11  1  0  0  0  0
  9 12  1  0  0  0  0
 12 13  1  0  0  0  0
 12 14  1  0  0  0  0
 12 15  1  0  0  0  0
 15 16  1  0  0  0  0
 15 17  1  0  0  0  0
 15 18  1  0  0  0  0
 18 19  1  0  0  0  0
 18 20  2  0  0  0  0
M  END
> <VM2 Rank>
66

> <Conf_Id>
726

> <Probability>
0.00

> <Sum Probability>
100.00

> <Delta G>
5.356

> <G>
-16.534

> <E>
-32.206

> <-TS>
15.673

> <U+W>
-48.302

> <U>
13.663

> <W>
-61.966

> <W(PB)>
-64.074

> <W(SA)>
2.108

> <Valence>
11.349

> <Coulomb>
2.221

> <VdW>
0.093

> <VdW6>
-8.851

> <VdW12>
8.945

> <Bond>
0.196

> <Angle>
3.358

> <Pdih>
7.794

> <Idih>
0.001

> <Tether>
0.000

$$$$
VeraChem MOL file


 20 19  0  0  0  0  0  0  0  0999 V2000     
   21.1800   19.3476   20.2374 C   0  0  0  0  0  0  0  0  0  0  0  0
   22.1137   19.8689   20.0343 H   0  0  0  0  0  0  0  0  0  0  0  0
   21.1167   18.3067   19.9279 H   0  0  0  0  0  0  0  0  0  0  0  0
   20.1619   19.9728   20.8383 C   0  0  0  0  0  0  0  0  0  0  0  0
   20.2735   21.0162   21.1321 H   0  0  0  0  0  0  0  0  0  0  0  0
   18.8167   19.3600   21.1880 C   0  0  0  0  0  0  0  0  0  0  0  0
   18.1164   19.5489   20.3639 H   0  0  0  0  0  0  0  0  0  0  0  0
   18.3914   19.8969   22.0441 H   0  0  0  0  0  0  0  0  0  0  0  0
   18.8377   17.8435   21.5080 C   0  0  0  0  0  0  0  0  0  0  0  0
   17.8089   17.5070   21.6947 H   0  0  0  0  0  0  0  0  0  0  0  0
   19.1697   17.2948   20.6169 H   0  0  0  0  0  0  0  0  0  0  0  0
   19.7262   17.4351   22.7125 C   0  0  0  0  0  0  0  0  0  0  0  0
   20.7598   17.7750   22.5623 H   0  0  0  0  0  0  0  0  0  0  0  0
   19.7719   16.3380   22.7337 H   0  0  0  0  0  0  0  0  0  0  0  0
   19.2078   17.9176   24.0963 C   0  0  0  0  0  0  0  0  0  0  0  0
   18.1210   17.7877   24.1639 H   0  0  0  0  0  0  0  0  0  0  0  0
   19.6474   17.2892   24.8795 H   0  0  0  0  0  0  0  0  0  0  0  0
   19.5598   19.3598   24.4556 C   0  0  0  0  0  0  0  0  0  0  0  0
   20.7318   19.6437   24.6089 O   0  5  0  0  0  0  0  0  0  0  0  0
   18.6490   20.1378   24.6630 O   0  0  0  0  0  0  0  0  0  0  0  0
  1  2  1  0  0  0  0
  1  3  1  0  0  0  0
  1  4  2  0  0  0  0
  4  5  1  0  0  0  0
  4  6  1  0  0  0  0
  6  7  1  0  0  0  0
  6  8  1  0  0  0  0
  6  9  1  0  0  0  0
  9 10  1  0  0  0  0
  9 11  1  0  0  0  0
  9 12  1  0  0  0  0
 12 13  1  0  0  0  0
 12 14  1  0  0  0  0
 12 15  1  0  0  0  0
 15 16  1  0  0  0  0
 15 17  1  0  0  0  0
 15 18  1  0  0  0  0
 18 19  1  0  0  0  0
 18 20  2  0  0  0  0
M  END
> <VM2 Rank>
67

> <Conf_Id>
381

> <Probability>
0.00

> <Sum Probability>
100.00

> <Delta G>
5.387

> <G>
-16.502

> <E>
-32.128

> <-TS>
15.626

> <U+W>
-48.224

> <U>
14.666

> <W>
-62.891

> <W(PB)>
-64.994

> <W(SA)>
2.103

> <Valence>
11.118

> <Coulomb>
3.067

> <VdW>
0.482

> <VdW6>
-9.661

> <VdW12>
10.143

> <Bond>
0.245

> <Angle>
3.968

> <Pdih>
6.886

> <Idih>
0.019

> <Tether>
0.000

$$$$
VeraChem MOL file


 20 19  0  0  0  0  0  0  0  0999 V2000     
   19.9294   17.3447   20.0548 C   0  0  0  0  0  0  0  0  0  0  0  0
   19.5331   16.3316   20.0958 H   0  0  0  0  0  0  0  0  0  0  0  0
   20.8040   17.5160   19.4295 H   0  0  0  0  0  0  0  0  0  0  0  0
   19.3637   18.3346   20.7507 C   0  0  0  0  0  0  0  0  0  0  0  0
   18.4884   18.1352   21.3664 H   0  0  0  0  0  0  0  0  0  0  0  0
   19.8588   19.7659   20.7378 C   0  0  0  0  0  0  0  0  0  0  0  0
   19.0177   20.4623   20.6229 H   0  0  0  0  0  0  0  0  0  0  0  0
   20.4948   19.9133   19.8545 H   0  0  0  0  0  0  0  0  0  0  0  0
   20.6858   20.1243   21.9973 C   0  0  0  0  0  0  0  0  0  0  0  0
   21.2208   19.2366   22.3630 H   0  0  0  0  0  0  0  0  0  0  0  0
   21.4644   20.8403   21.7006 H   0  0  0  0  0  0  0  0  0  0  0  0
   19.8696   20.7730   23.1444 C   0  0  0  0  0  0  0  0  0  0  0  0
   19.3892   21.6876   22.7716 H   0  0  0  0  0  0  0  0  0  0  0  0
   20.5665   21.0952   23.9305 H   0  0  0  0  0  0  0  0  0  0  0  0
   18.7900   19.8601   23.7863 C   0  0  0  0  0  0  0  0  0  0  0  0
   18.2660   20.4195   24.5696 H   0  0  0  0  0  0  0  0  0  0  0  0
   18.0319   19.5850   23.0454 H   0  0  0  0  0  0  0  0  0  0  0  0
   19.3344   18.5896   24.4360 C   0  0  0  0  0  0  0  0  0  0  0  0
   20.1840   18.7018   25.2985 O   0  5  0  0  0  0  0  0  0  0  0  0
   18.8553   17.5239   24.1023 O   0  0  0  0  0  0  0  0  0  0  0  0
  1  2  1  0  0  0  0
  1  3  1  0  0  0  0
  1  4  2  0  0  0  0
  4  5  1  0  0  0  0
  4  6  1  0  0  0  0
  6  7  1  0  0  0  0
  6  8  1  0  0  0  0
  6  9  1  0  0  0  0
  9 10  1  0  0  0  0
  9 11  1  0  0  0  0
  9 12  1  0  0  0  0
 12 13  1  0  0  0  0
 12 14  1  0  0  0  0
 12 15  1  0  0  0  0
 15 16  1  0  0  0  0
 15 17  1  0  0  0  0
 15 18  1  0  0  0  0
 18 19  1  0  0  0  0
 18 20  2  0  0  0  0
M  END
> <VM2 Rank>
68

> <Conf_Id>
940

> <Probability>
0.00

> <Sum Probability>
100.00

> <Delta G>
5.610

> <G>
-16.279

> <E>
-31.881

> <-TS>
15.602

> <U+W>
-47.977

> <U>
14.799

> <W>
-62.777

> <W(PB)>
-64.893

> <W(SA)>
2.116

> <Valence>
11.950

> <Coulomb>
2.728

> <VdW>
0.122

> <VdW6>
-8.855

> <VdW12>
8.977

> <Bond>
0.186

> <Angle>
3.315

> <Pdih>
8.442

> <Idih>
0.007

> <Tether>
0.000

$$$$
VeraChem MOL file


 20 19  0  0  0  0  0  0  0  0999 V2000     
   20.2049   17.3115   20.8236 C   0  0  0  0  0  0  0  0  0  0  0  0
   19.9103   16.4953   20.1665 H   0  0  0  0  0  0  0  0  0  0  0  0
   20.5555   17.0508   21.8213 H   0  0  0  0  0  0  0  0  0  0  0  0
   20.1296   18.5832   20.4228 C   0  0  0  0  0  0  0  0  0  0  0  0
   19.7715   18.8235   19.4222 H   0  0  0  0  0  0  0  0  0  0  0  0
   20.5205   19.7694   21.2786 C   0  0  0  0  0  0  0  0  0  0  0  0
   21.2195   20.3985   20.7119 H   0  0  0  0  0  0  0  0  0  0  0  0
   21.0667   19.4431   22.1716 H   0  0  0  0  0  0  0  0  0  0  0  0
   19.2997   20.6304   21.6797 C   0  0  0  0  0  0  0  0  0  0  0  0
   19.6487   21.5514   22.1659 H   0  0  0  0  0  0  0  0  0  0  0  0
   18.7867   20.9495   20.7621 H   0  0  0  0  0  0  0  0  0  0  0  0
   18.2725   19.9221   22.6007 C   0  0  0  0  0  0  0  0  0  0  0  0
   18.0016   18.9381   22.1939 H   0  0  0  0  0  0  0  0  0  0  0  0
   17.3496   20.5174   22.5869 H   0  0  0  0  0  0  0  0  0  0  0  0
   18.7206   19.7824   24.0828 C   0  0  0  0  0  0  0  0  0  0  0  0
   19.1748   20.7165   24.4344 H   0  0  0  0  0  0  0  0  0  0  0  0
   17.8353   19.6123   24.7066 H   0  0  0  0  0  0  0  0  0  0  0  0
   19.6777   18.6283   24.3697 C   0  0  0  0  0  0  0  0  0  0  0  0
   20.8032   18.8955   24.7433 O   0  5  0  0  0  0  0  0  0  0  0  0
   19.2425   17.4952   24.3069 O   0  0  0  0  0  0  0  0  0  0  0  0
  1  2  1  0  0  0  0
  1  3  1  0  0  0  0
  1  4  2  0  0  0  0
  4  5  1  0  0  0  0
  4  6  1  0  0  0  0
  6  7  1  0  0  0  0
  6  8  1  0  0  0  0
  6  9  1  0  0  0  0
  9 10  1  0  0  0  0
  9 11  1  0  0  0  0
  9 12  1  0  0  0  0
 12 13  1  0  0  0  0
 12 14  1  0  0  0  0
 12 15  1  0  0  0  0
 15 16  1  0  0  0  0
 15 17  1  0  0  0  0
 15 18  1  0  0  0  0
 18 19  1  0  0  0  0
 18 20  2  0  0  0  0
M  END
> <VM2 Rank>
69

> <Conf_Id>
574

> <Probability>
0.00

> <Sum Probability>
100.00

> <Delta G>
5.856

> <G>
-16.033

> <E>
-32.086

> <-TS>
16.053

> <U+W>
-48.182

> <U>
14.642

> <W>
-62.824

> <W(PB)>
-64.914

> <W(SA)>
2.090

> <Valence>
11.578

> <Coulomb>
3.284

> <VdW>
-0.219

> <VdW6>
-9.345

> <VdW12>
9.126

> <Bond>
0.192

> <Angle>
3.435

> <Pdih>
7.929

> <Idih>
0.022

> <Tether>
0.000

$$$$
VeraChem MOL file


 20 19  0  0  0  0  0  0  0  0999 V2000     
   18.1597   19.0860   20.5906 C   0  0  0  0  0  0  0  0  0  0  0  0
   17.4815   18.6030   19.8895 H   0  0  0  0  0  0  0  0  0  0  0  0
   17.7281   19.5033   21.4995 H   0  0  0  0  0  0  0  0  0  0  0  0
   19.4710   19.1549   20.3477 C   0  0  0  0  0  0  0  0  0  0  0  0
   19.8838   18.7272   19.4345 H   0  0  0  0  0  0  0  0  0  0  0  0
   20.4744   19.8094   21.2735 C   0  0  0  0  0  0  0  0  0  0  0  0
   19.9660   20.3977   22.0465 H   0  0  0  0  0  0  0  0  0  0  0  0
   21.0730   20.5258   20.6957 H   0  0  0  0  0  0  0  0  0  0  0  0
   21.4308   18.7813   21.9221 C   0  0  0  0  0  0  0  0  0  0  0  0
   21.9308   18.2217   21.1197 H   0  0  0  0  0  0  0  0  0  0  0  0
   22.2269   19.3142   22.4594 H   0  0  0  0  0  0  0  0  0  0  0  0
   20.7523   17.7702   22.8826 C   0  0  0  0  0  0  0  0  0  0  0  0
   21.4614   16.9493   23.0542 H   0  0  0  0  0  0  0  0  0  0  0  0
   19.8735   17.3137   22.4065 H   0  0  0  0  0  0  0  0  0  0  0  0
   20.3647   18.3553   24.2697 C   0  0  0  0  0  0  0  0  0  0  0  0
   20.2342   17.5298   24.9792 H   0  0  0  0  0  0  0  0  0  0  0  0
   21.1773   18.9781   24.6624 H   0  0  0  0  0  0  0  0  0  0  0  0
   19.0669   19.1584   24.3003 C   0  0  0  0  0  0  0  0  0  0  0  0
   19.1324   20.3455   24.5538 O   0  5  0  0  0  0  0  0  0  0  0  0
   18.0189   18.5572   24.1677 O   0  0  0  0  0  0  0  0  0  0  0  0
  1  2  1  0  0  0  0
  1  3  1  0  0  0  0
  1  4  2  0  0  0  0
  4  5  1  0  0  0  0
  4  6  1  0  0  0  0
  6  7  1  0  0  0  0
  6  8  1  0  0  0  0
  6  9  1  0  0  0  0
  9 10  1  0  0  0  0
  9 11  1  0  0  0  0
  9 12  1  0  0  0  0
 12 13  1  0  0  0  0
 12 14  1  0  0  0  0
 12 15  1  0  0  0  0
 15 16  1  0  0  0  0
 15 17  1  0  0  0  0
 15 18  1  0  0  0  0
 18 19  1  0  0  0  0
 18 20  2  0  0  0  0
M  END
> <VM2 Rank>
70

> <Conf_Id>
173

> <Probability>
0.00

> <Sum Probability>
100.00

> <Delta G>
5.862

> <G>
-16.027

> <E>
-32.080

> <-TS>
16.053

> <U+W>
-48.176

> <U>
14.640

> <W>
-62.816

> <W(PB)>
-64.895

> <W(SA)>
2.079

> <Valence>
11.577

> <Coulomb>
3.282

> <VdW>
-0.219

> <VdW6>
-9.345

> <VdW12>
9.126

> <Bond>
0.192

> <Angle>
3.435

> <Pdih>
7.929

> <Idih>
0.021

> <Tether>
0.000

$$$$
VeraChem MOL file


 20 19  0  0  0  0  0  0  0  0999 V2000     
   21.3448   19.2895   19.9185 C   0  0  0  0  0  0  0  0  0  0  0  0
   20.8379   19.2780   18.9550 H   0  0  0  0  0  0  0  0  0  0  0  0
   22.4302   19.2066   19.9149 H   0  0  0  0  0  0  0  0  0  0  0  0
   20.6651   19.3978   21.0632 C   0  0  0  0  0  0  0  0  0  0  0  0
   21.1963   19.4103   22.0127 H   0  0  0  0  0  0  0  0  0  0  0  0
   19.1580   19.5239   21.1423 C   0  0  0  0  0  0  0  0  0  0  0  0
   18.7810   19.8833   20.1752 H   0  0  0  0  0  0  0  0  0  0  0  0
   18.8710   20.2867   21.8786 H   0  0  0  0  0  0  0  0  0  0  0  0
   18.4701   18.1749   21.4627 C   0  0  0  0  0  0  0  0  0  0  0  0
   17.5356   18.1237   20.8874 H   0  0  0  0  0  0  0  0  0  0  0  0
   19.0890   17.3434   21.0980 H   0  0  0  0  0  0  0  0  0  0  0  0
   18.1112   17.9551   22.9546 C   0  0  0  0  0  0  0  0  0  0  0  0
   17.5808   16.9961   23.0277 H   0  0  0  0  0  0  0  0  0  0  0  0
   17.3909   18.7173   23.2821 H   0  0  0  0  0  0  0  0  0  0  0  0
   19.3208   17.9084   23.9315 C   0  0  0  0  0  0  0  0  0  0  0  0
   19.0392   17.3269   24.8167 H   0  0  0  0  0  0  0  0  0  0  0  0
   20.1630   17.3821   23.4663 H   0  0  0  0  0  0  0  0  0  0  0  0
   19.8083   19.2609   24.4538 C   0  0  0  0  0  0  0  0  0  0  0  0
   21.0059   19.4162   24.5904 O   0  5  0  0  0  0  0  0  0  0  0  0
   18.9868   20.0913   24.7910 O   0  0  0  0  0  0  0  0  0  0  0  0
  1  2  1  0  0  0  0
  1  3  1  0  0  0  0
  1  4  2  0  0  0  0
  4  5  1  0  0  0  0
  4  6  1  0  0  0  0
  6  7  1  0  0  0  0
  6  8  1  0  0  0  0
  6  9  1  0  0  0  0
  9 10  1  0  0  0  0
  9 11  1  0  0  0  0
  9 12  1  0  0  0  0
 12 13  1  0  0  0  0
 12 14  1  0  0  0  0
 12 15  1  0  0  0  0
 15 16  1  0  0  0  0
 15 17  1  0  0  0  0
 15 18  1  0  0  0  0
 18 19  1  0  0  0  0
 18 20  2  0  0  0  0
M  END
> <VM2 Rank>
71

> <Conf_Id>
670

> <Probability>
0.00

> <Sum Probability>
100.00

> <Delta G>
6.783

> <G>
-15.106

> <E>
-30.714

> <-TS>
15.608

> <U+W>
-46.810

> <U>
15.456

> <W>
-62.266

> <W(PB)>
-64.358

> <W(SA)>
2.093

> <Valence>
13.615

> <Coulomb>
1.409

> <VdW>
0.431

> <VdW6>
-9.299

> <VdW12>
9.730

> <Bond>
0.212

> <Angle>
3.797

> <Pdih>
9.591

> <Idih>
0.016

> <Tether>
0.000

$$$$
VeraChem MOL file


 20 19  0  0  0  0  0  0  0  0999 V2000     
   18.7801   18.5167   19.5874 C   0  0  0  0  0  0  0  0  0  0  0  0
   17.9516   17.8565   19.3366 H   0  0  0  0  0  0  0  0  0  0  0  0
   19.4189   18.8514   18.7717 H   0  0  0  0  0  0  0  0  0  0  0  0
   19.0023   18.8962   20.8486 C   0  0  0  0  0  0  0  0  0  0  0  0
   18.3468   18.5500   21.6448 H   0  0  0  0  0  0  0  0  0  0  0  0
   20.1296   19.8167   21.2677 C   0  0  0  0  0  0  0  0  0  0  0  0
   19.7739   20.5586   21.9952 H   0  0  0  0  0  0  0  0  0  0  0  0
   20.4630   20.3904   20.3924 H   0  0  0  0  0  0  0  0  0  0  0  0
   21.3437   19.0411   21.8334 C   0  0  0  0  0  0  0  0  0  0  0  0
   21.3826   18.0347   21.3941 H   0  0  0  0  0  0  0  0  0  0  0  0
   22.2586   19.5475   21.4967 H   0  0  0  0  0  0  0  0  0  0  0  0
   21.4051   18.9481   23.3796 C   0  0  0  0  0  0  0  0  0  0  0  0
   21.4942   19.9544   23.8114 H   0  0  0  0  0  0  0  0  0  0  0  0
   22.3376   18.4301   23.6414 H   0  0  0  0  0  0  0  0  0  0  0  0
   20.2282   18.1820   24.0487 C   0  0  0  0  0  0  0  0  0  0  0  0
   19.9445   17.3162   23.4384 H   0  0  0  0  0  0  0  0  0  0  0  0
   20.5656   17.7871   25.0138 H   0  0  0  0  0  0  0  0  0  0  0  0
   18.9774   19.0103   24.3468 C   0  0  0  0  0  0  0  0  0  0  0  0
   19.1088   20.1280   24.8068 O   0  5  0  0  0  0  0  0  0  0  0  0
   17.8959   18.4789   24.1890 O   0  0  0  0  0  0  0  0  0  0  0  0
  1  2  1  0  0  0  0
  1  3  1  0  0  0  0
  1  4  2  0  0  0  0
  4  5  1  0  0  0  0
  4  6  1  0  0  0  0
  6  7  1  0  0  0  0
  6  8  1  0  0  0  0
  6  9  1  0  0  0  0
  9 10  1  0  0  0  0
  9 11  1  0  0  0  0
  9 12  1  0  0  0  0
 12 13  1  0  0  0  0
 12 14  1  0  0  0  0
 12 15  1  0  0  0  0
 15 16  1  0  0  0  0
 15 17  1  0  0  0  0
 15 18  1  0  0  0  0
 18 19  1  0  0  0  0
 18 20  2  0  0  0  0
M  END
> <VM2 Rank>
72

> <Conf_Id>
286

> <Probability>
0.00

> <Sum Probability>
100.00

> <Delta G>
6.793

> <G>
-15.097

> <E>
-30.706

> <-TS>
15.610

> <U+W>
-46.803

> <U>
15.456

> <W>
-62.259

> <W(PB)>
-64.378

> <W(SA)>
2.119

> <Valence>
13.615

> <Coulomb>
1.410

> <VdW>
0.431

> <VdW6>
-9.299

> <VdW12>
9.730

> <Bond>
0.212

> <Angle>
3.796

> <Pdih>
9.591

> <Idih>
0.016

> <Tether>
0.000

$$$$
VeraChem MOL file


 20 19  0  0  0  0  0  0  0  0999 V2000     
   18.0448   18.6453   20.9523 C   0  0  0  0  0  0  0  0  0  0  0  0
   17.4207   17.8078   20.6460 H   0  0  0  0  0  0  0  0  0  0  0  0
   17.5676   19.4454   21.5162 H   0  0  0  0  0  0  0  0  0  0  0  0
   19.3463   18.6813   20.6572 C   0  0  0  0  0  0  0  0  0  0  0  0
   19.8011   17.8671   20.0937 H   0  0  0  0  0  0  0  0  0  0  0  0
   20.2802   19.8079   21.0478 C   0  0  0  0  0  0  0  0  0  0  0  0
   19.7626   20.5689   21.6478 H   0  0  0  0  0  0  0  0  0  0  0  0
   20.6040   20.3100   20.1265 H   0  0  0  0  0  0  0  0  0  0  0  0
   21.5462   19.3097   21.7866 C   0  0  0  0  0  0  0  0  0  0  0  0
   21.8396   18.3219   21.4057 H   0  0  0  0  0  0  0  0  0  0  0  0
   22.3750   19.9841   21.5314 H   0  0  0  0  0  0  0  0  0  0  0  0
   21.4411   19.2708   23.3324 C   0  0  0  0  0  0  0  0  0  0  0  0
   21.2837   20.2851   23.7237 H   0  0  0  0  0  0  0  0  0  0  0  0
   22.4201   18.9564   23.7185 H   0  0  0  0  0  0  0  0  0  0  0  0
   20.3693   18.2969   23.9025 C   0  0  0  0  0  0  0  0  0  0  0  0
   20.2893   17.4086   23.2647 H   0  0  0  0  0  0  0  0  0  0  0  0
   20.7000   17.9446   24.8862 H   0  0  0  0  0  0  0  0  0  0  0  0
   18.9654   18.8698   24.1144 C   0  0  0  0  0  0  0  0  0  0  0  0
   18.8280   20.0615   24.3158 O   0  5  0  0  0  0  0  0  0  0  0  0
   18.0497   18.0749   24.1991 O   0  0  0  0  0  0  0  0  0  0  0  0
  1  2  1  0  0  0  0
  1  3  1  0  0  0  0
  1  4  2  0  0  0  0
  4  5  1  0  0  0  0
  4  6  1  0  0  0  0
  6  7  1  0  0  0  0
  6  8  1  0  0  0  0
  6  9  1  0  0  0  0
  9 10  1  0  0  0  0
  9 11  1  0  0  0  0
  9 12  1  0  0  0  0
 12 13  1  0  0  0  0
 12 14  1  0  0  0  0
 12 15  1  0  0  0  0
 15 16  1  0  0  0  0
 15 17  1  0  0  0  0
 15 18  1  0  0  0  0
 18 19  1  0  0  0  0
 18 20  2  0  0  0  0
M  END
> <VM2 Rank>
73

> <Conf_Id>
496

> <Probability>
0.00

> <Sum Probability>
100.00

> <Delta G>
9.344

> <G>
-12.545

> <E>
-28.539

> <-TS>
15.994

> <U+W>
-44.635

> <U>
18.570

> <W>
-63.205

> <W(PB)>
-65.275

> <W(SA)>
2.070

> <Valence>
14.099

> <Coulomb>
4.495

> <VdW>
-0.023

> <VdW6>
-10.119

> <VdW12>
10.096

> <Bond>
0.225

> <Angle>
4.256

> <Pdih>
9.582

> <Idih>
0.036

> <Tether>
0.000

$$$$
