VeraChem MOL file


 26 25  0  0  0  0  0  0  0  0999 V2000     
   19.9837   18.6238   26.4861 N   0  3  0  0  0  0  0  0  0  0  0  0
   20.8629   18.0856   26.5333 H   0  0  0  0  0  0  0  0  0  0  0  0
   19.2305   17.9186   26.4752 H   0  0  0  0  0  0  0  0  0  0  0  0
   19.9443   19.4507   25.2166 C   0  0  0  0  0  0  0  0  0  0  0  0
   20.7599   20.1768   25.2640 H   0  0  0  0  0  0  0  0  0  0  0  0
   18.9977   19.9967   25.2014 H   0  0  0  0  0  0  0  0  0  0  0  0
   20.0761   18.6066   23.9359 C   0  0  0  0  0  0  0  0  0  0  0  0
   21.0207   18.0471   23.9630 H   0  0  0  0  0  0  0  0  0  0  0  0
   19.2644   17.8676   23.9007 H   0  0  0  0  0  0  0  0  0  0  0  0
   20.0307   19.4900   22.6695 C   0  0  0  0  0  0  0  0  0  0  0  0
   20.8409   20.2314   22.7110 H   0  0  0  0  0  0  0  0  0  0  0  0
   19.0867   20.0524   22.6490 H   0  0  0  0  0  0  0  0  0  0  0  0
   20.1618   18.6528   21.3767 C   0  0  0  0  0  0  0  0  0  0  0  0
   21.1057   18.0906   21.3970 H   0  0  0  0  0  0  0  0  0  0  0  0
   19.3517   17.9116   21.3350 H   0  0  0  0  0  0  0  0  0  0  0  0
   20.1163   19.5367   20.1103 C   0  0  0  0  0  0  0  0  0  0  0  0
   20.9266   20.2785   20.1460 H   0  0  0  0  0  0  0  0  0  0  0  0
   19.1727   20.0996   20.0841 H   0  0  0  0  0  0  0  0  0  0  0  0
   20.2474   18.6973   18.8214 C   0  0  0  0  0  0  0  0  0  0  0  0
   21.1981   18.1487   18.8024 H   0  0  0  0  0  0  0  0  0  0  0  0
   20.2130   19.3421   17.9337 H   0  0  0  0  0  0  0  0  0  0  0  0
   19.4305   17.9685   18.7400 H   0  0  0  0  0  0  0  0  0  0  0  0
   19.8476   19.5320   27.7004 C   0  0  0  0  0  0  0  0  0  0  0  0
   18.8961   20.0654   27.6451 H   0  0  0  0  0  0  0  0  0  0  0  0
   19.8775   18.9241   28.6075 H   0  0  0  0  0  0  0  0  0  0  0  0
   20.6730   20.2472   27.7084 H   0  0  0  0  0  0  0  0  0  0  0  0
  1  2  1  0  0  0  0
  1  3  1  0  0  0  0
  1  4  1  0  0  0  0
  4  5  1  0  0  0  0
  4  6  1  0  0  0  0
  4  7  1  0  0  0  0
  7  8  1  0  0  0  0
  7  9  1  0  0  0  0
  7 10  1  0  0  0  0
 10 11  1  0  0  0  0
 10 12  1  0  0  0  0
 10 13  1  0  0  0  0
 13 14  1  0  0  0  0
 13 15  1  0  0  0  0
 13 16  1  0  0  0  0
 16 17  1  0  0  0  0
 16 18  1  0  0  0  0
 16 19  1  0  0  0  0
 19 20  1  0  0  0  0
 19 21  1  0  0  0  0
 19 22  1  0  0  0  0
  1 23  1  0  0  0  0
 23 24  1  0  0  0  0
 23 25  1  0  0  0  0
 23 26  1  0  0  0  0
M  END
> <VM2 Rank>
1

> <Conf_Id>
1417

> <Probability>
6.83

> <Sum Probability>
6.83

> <Delta G>
0.000

> <G>
75.466

> <E>
43.303

> <-TS>
32.163

> <U+W>
21.841

> <U>
70.357

> <W>
-48.515

> <W(PB)>
-50.856

> <W(SA)>
2.341

> <Valence>
1.714

> <Coulomb>
68.480

> <VdW>
0.163

> <VdW6>
-5.268

> <VdW12>
5.431

> <Bond>
0.126

> <Angle>
0.350

> <Pdih>
1.238

> <Idih>
0.000

> <Tether>
0.000

$$$$
VeraChem MOL file


 26 25  0  0  0  0  0  0  0  0999 V2000     
   20.3923   19.0035   26.6223 N   0  3  0  0  0  0  0  0  0  0  0  0
   20.8629   19.5627   27.3515 H   0  0  0  0  0  0  0  0  0  0  0  0
   20.8762   18.0923   26.6322 H   0  0  0  0  0  0  0  0  0  0  0  0
   20.5689   19.6776   25.2718 C   0  0  0  0  0  0  0  0  0  0  0  0
   21.6303   19.9155   25.1643 H   0  0  0  0  0  0  0  0  0  0  0  0
   20.0111   20.6172   25.2891 H   0  0  0  0  0  0  0  0  0  0  0  0
   20.1224   18.8245   24.0671 C   0  0  0  0  0  0  0  0  0  0  0  0
   20.6515   17.8625   24.0861 H   0  0  0  0  0  0  0  0  0  0  0  0
   19.0500   18.6039   24.1455 H   0  0  0  0  0  0  0  0  0  0  0  0
   20.4034   19.5462   22.7305 C   0  0  0  0  0  0  0  0  0  0  0  0
   21.4768   19.7687   22.6529 H   0  0  0  0  0  0  0  0  0  0  0  0
   19.8775   20.5111   22.7181 H   0  0  0  0  0  0  0  0  0  0  0  0
   19.9615   18.7009   21.5141 C   0  0  0  0  0  0  0  0  0  0  0  0
   20.4871   17.7360   21.5265 H   0  0  0  0  0  0  0  0  0  0  0  0
   18.8881   18.4786   21.5913 H   0  0  0  0  0  0  0  0  0  0  0  0
   20.2426   19.4231   20.1774 C   0  0  0  0  0  0  0  0  0  0  0  0
   21.3157   19.6456   20.0942 H   0  0  0  0  0  0  0  0  0  0  0  0
   19.7168   20.3881   20.1591 H   0  0  0  0  0  0  0  0  0  0  0  0
   19.8001   18.5761   18.9651 C   0  0  0  0  0  0  0  0  0  0  0  0
   20.0077   19.1052   18.0260 H   0  0  0  0  0  0  0  0  0  0  0  0
   18.7232   18.3659   19.0021 H   0  0  0  0  0  0  0  0  0  0  0  0
   20.3346   17.6176   18.9367 H   0  0  0  0  0  0  0  0  0  0  0  0
   18.9168   18.8381   26.9688 C   0  0  0  0  0  0  0  0  0  0  0  0
   18.4414   18.1920   26.2281 H   0  0  0  0  0  0  0  0  0  0  0  0
   18.8312   18.3856   27.9592 H   0  0  0  0  0  0  0  0  0  0  0  0
   18.4362   19.8188   26.9688 H   0  0  0  0  0  0  0  0  0  0  0  0
  1  2  1  0  0  0  0
  1  3  1  0  0  0  0
  1  4  1  0  0  0  0
  4  5  1  0  0  0  0
  4  6  1  0  0  0  0
  4  7  1  0  0  0  0
  7  8  1  0  0  0  0
  7  9  1  0  0  0  0
  7 10  1  0  0  0  0
 10 11  1  0  0  0  0
 10 12  1  0  0  0  0
 10 13  1  0  0  0  0
 13 14  1  0  0  0  0
 13 15  1  0  0  0  0
 13 16  1  0  0  0  0
 16 17  1  0  0  0  0
 16 18  1  0  0  0  0
 16 19  1  0  0  0  0
 19 20  1  0  0  0  0
 19 21  1  0  0  0  0
 19 22  1  0  0  0  0
  1 23  1  0  0  0  0
 23 24  1  0  0  0  0
 23 25  1  0  0  0  0
 23 26  1  0  0  0  0
M  END
> <VM2 Rank>
2

> <Conf_Id>
1434

> <Probability>
4.20

> <Sum Probability>
11.03

> <Delta G>
0.291

> <G>
75.757

> <E>
43.423

> <-TS>
32.334

> <U+W>
21.961

> <U>
70.745

> <W>
-48.784

> <W(PB)>
-51.112

> <W(SA)>
2.328

> <Valence>
1.993

> <Coulomb>
68.323

> <VdW>
0.429

> <VdW6>
-5.973

> <VdW12>
6.403

> <Bond>
0.161

> <Angle>
0.472

> <Pdih>
1.360

> <Idih>
0.000

> <Tether>
0.000

$$$$
VeraChem MOL file


 26 25  0  0  0  0  0  0  0  0999 V2000     
   19.4983   18.9125   26.5906 N   0  3  0  0  0  0  0  0  0  0  0  0
   19.2083   17.9225   26.5732 H   0  0  0  0  0  0  0  0  0  0  0  0
   18.8749   19.3603   27.2811 H   0  0  0  0  0  0  0  0  0  0  0  0
   19.2845   19.5468   25.2263 C   0  0  0  0  0  0  0  0  0  0  0  0
   19.6392   20.5793   25.2758 H   0  0  0  0  0  0  0  0  0  0  0  0
   18.2072   19.5668   25.0431 H   0  0  0  0  0  0  0  0  0  0  0  0
   19.9769   18.8096   24.0619 C   0  0  0  0  0  0  0  0  0  0  0  0
   21.0636   18.8088   24.2168 H   0  0  0  0  0  0  0  0  0  0  0  0
   19.6522   17.7607   24.0507 H   0  0  0  0  0  0  0  0  0  0  0  0
   19.6507   19.4695   22.7038 C   0  0  0  0  0  0  0  0  0  0  0  0
   19.9712   20.5206   22.7215 H   0  0  0  0  0  0  0  0  0  0  0  0
   18.5626   19.4719   22.5497 H   0  0  0  0  0  0  0  0  0  0  0  0
   20.3379   18.7393   21.5274 C   0  0  0  0  0  0  0  0  0  0  0  0
   21.4259   18.7371   21.6812 H   0  0  0  0  0  0  0  0  0  0  0  0
   20.0177   17.6882   21.5098 H   0  0  0  0  0  0  0  0  0  0  0  0
   20.0114   19.3995   20.1692 C   0  0  0  0  0  0  0  0  0  0  0  0
   20.3318   20.4508   20.1809 H   0  0  0  0  0  0  0  0  0  0  0  0
   18.9240   19.4017   20.0094 H   0  0  0  0  0  0  0  0  0  0  0  0
   20.6994   18.6678   18.9970 C   0  0  0  0  0  0  0  0  0  0  0  0
   21.7912   18.6788   19.1109 H   0  0  0  0  0  0  0  0  0  0  0  0
   20.4557   19.1508   18.0419 H   0  0  0  0  0  0  0  0  0  0  0  0
   20.3724   17.6214   18.9381 H   0  0  0  0  0  0  0  0  0  0  0  0
   20.9489   19.0451   27.0407 C   0  0  0  0  0  0  0  0  0  0  0  0
   21.2210   20.1025   27.0674 H   0  0  0  0  0  0  0  0  0  0  0  0
   21.0543   18.6121   28.0379 H   0  0  0  0  0  0  0  0  0  0  0  0
   21.5954   18.5132   26.3398 H   0  0  0  0  0  0  0  0  0  0  0  0
  1  2  1  0  0  0  0
  1  3  1  0  0  0  0
  1  4  1  0  0  0  0
  4  5  1  0  0  0  0
  4  6  1  0  0  0  0
  4  7  1  0  0  0  0
  7  8  1  0  0  0  0
  7  9  1  0  0  0  0
  7 10  1  0  0  0  0
 10 11  1  0  0  0  0
 10 12  1  0  0  0  0
 10 13  1  0  0  0  0
 13 14  1  0  0  0  0
 13 15  1  0  0  0  0
 13 16  1  0  0  0  0
 16 17  1  0  0  0  0
 16 18  1  0  0  0  0
 16 19  1  0  0  0  0
 19 20  1  0  0  0  0
 19 21  1  0  0  0  0
 19 22  1  0  0  0  0
  1 23  1  0  0  0  0
 23 24  1  0  0  0  0
 23 25  1  0  0  0  0
 23 26  1  0  0  0  0
M  END
> <VM2 Rank>
3

> <Conf_Id>
37

> <Probability>
4.16

> <Sum Probability>
15.18

> <Delta G>
0.296

> <G>
75.762

> <E>
43.429

> <-TS>
32.333

> <U+W>
21.967

> <U>
70.745

> <W>
-48.778

> <W(PB)>
-51.115

> <W(SA)>
2.337

> <Valence>
1.993

> <Coulomb>
68.323

> <VdW>
0.429

> <VdW6>
-5.973

> <VdW12>
6.403

> <Bond>
0.161

> <Angle>
0.472

> <Pdih>
1.360

> <Idih>
0.000

> <Tether>
0.000

$$$$
VeraChem MOL file


 26 25  0  0  0  0  0  0  0  0999 V2000     
   20.5559   19.2937   25.9474 N   0  3  0  0  0  0  0  0  0  0  0  0
   20.9607   20.0235   25.3419 H   0  0  0  0  0  0  0  0  0  0  0  0
   21.2650   18.5453   25.9905 H   0  0  0  0  0  0  0  0  0  0  0  0
   19.2732   18.7625   25.3370 C   0  0  0  0  0  0  0  0  0  0  0  0
   18.5525   19.5832   25.2991 H   0  0  0  0  0  0  0  0  0  0  0  0
   18.8814   17.9953   26.0097 H   0  0  0  0  0  0  0  0  0  0  0  0
   19.4519   18.1634   23.9280 C   0  0  0  0  0  0  0  0  0  0  0  0
   20.1817   17.3438   23.9678 H   0  0  0  0  0  0  0  0  0  0  0  0
   18.4975   17.7176   23.6174 H   0  0  0  0  0  0  0  0  0  0  0  0
   19.8905   19.2154   22.8816 C   0  0  0  0  0  0  0  0  0  0  0  0
   20.8629   19.6408   23.1635 H   0  0  0  0  0  0  0  0  0  0  0  0
   19.1699   20.0452   22.8730 H   0  0  0  0  0  0  0  0  0  0  0  0
   19.9934   18.6073   21.4643 C   0  0  0  0  0  0  0  0  0  0  0  0
   20.7114   17.7754   21.4726 H   0  0  0  0  0  0  0  0  0  0  0  0
   19.0216   18.1847   21.1738 H   0  0  0  0  0  0  0  0  0  0  0  0
   20.4321   19.6555   20.4174 C   0  0  0  0  0  0  0  0  0  0  0  0
   21.4056   20.0793   20.7015 H   0  0  0  0  0  0  0  0  0  0  0  0
   19.7157   20.4889   20.4038 H   0  0  0  0  0  0  0  0  0  0  0  0
   20.5332   19.0445   19.0034 C   0  0  0  0  0  0  0  0  0  0  0  0
   21.2683   18.2295   18.9769 H   0  0  0  0  0  0  0  0  0  0  0  0
   20.8457   19.8035   18.2745 H   0  0  0  0  0  0  0  0  0  0  0  0
   19.5653   18.6425   18.6767 H   0  0  0  0  0  0  0  0  0  0  0  0
   20.2778   19.8478   27.3378 C   0  0  0  0  0  0  0  0  0  0  0  0
   21.2088   20.2269   27.7653 H   0  0  0  0  0  0  0  0  0  0  0  0
   19.5495   20.6582   27.2624 H   0  0  0  0  0  0  0  0  0  0  0  0
   19.8799   19.0502   27.9691 H   0  0  0  0  0  0  0  0  0  0  0  0
  1  2  1  0  0  0  0
  1  3  1  0  0  0  0
  1  4  1  0  0  0  0
  4  5  1  0  0  0  0
  4  6  1  0  0  0  0
  4  7  1  0  0  0  0
  7  8  1  0  0  0  0
  7  9  1  0  0  0  0
  7 10  1  0  0  0  0
 10 11  1  0  0  0  0
 10 12  1  0  0  0  0
 10 13  1  0  0  0  0
 13 14  1  0  0  0  0
 13 15  1  0  0  0  0
 13 16  1  0  0  0  0
 16 17  1  0  0  0  0
 16 18  1  0  0  0  0
 16 19  1  0  0  0  0
 19 20  1  0  0  0  0
 19 21  1  0  0  0  0
 19 22  1  0  0  0  0
  1 23  1  0  0  0  0
 23 24  1  0  0  0  0
 23 25  1  0  0  0  0
 23 26  1  0  0  0  0
M  END
> <VM2 Rank>
4

> <Conf_Id>
1029

> <Probability>
3.08

> <Sum Probability>
18.26

> <Delta G>
0.475

> <G>
75.941

> <E>
43.686

> <-TS>
32.255

> <U+W>
22.224

> <U>
71.143

> <W>
-48.918

> <W(PB)>
-51.256

> <W(SA)>
2.337

> <Valence>
1.835

> <Coulomb>
69.102

> <VdW>
0.206

> <VdW6>
-5.849

> <VdW12>
6.055

> <Bond>
0.142

> <Angle>
0.413

> <Pdih>
1.279

> <Idih>
0.000

> <Tether>
0.000

$$$$
VeraChem MOL file


 26 25  0  0  0  0  0  0  0  0999 V2000     
   19.3272   19.1677   25.9040 N   0  3  0  0  0  0  0  0  0  0  0  0
   18.7834   18.2908   25.9027 H   0  0  0  0  0  0  0  0  0  0  0  0
   18.8262   19.8046   25.2664 H   0  0  0  0  0  0  0  0  0  0  0  0
   20.7304   18.9120   25.3886 C   0  0  0  0  0  0  0  0  0  0  0  0
   21.2216   18.2354   26.0926 H   0  0  0  0  0  0  0  0  0  0  0  0
   21.2707   19.8621   25.3952 H   0  0  0  0  0  0  0  0  0  0  0  0
   20.7760   18.2993   23.9749 C   0  0  0  0  0  0  0  0  0  0  0  0
   21.8203   18.0584   23.7351 H   0  0  0  0  0  0  0  0  0  0  0  0
   20.2266   17.3484   23.9694 H   0  0  0  0  0  0  0  0  0  0  0  0
   20.2075   19.2479   22.8928 C   0  0  0  0  0  0  0  0  0  0  0  0
   20.7437   20.2066   22.9287 H   0  0  0  0  0  0  0  0  0  0  0  0
   19.1518   19.4653   23.1028 H   0  0  0  0  0  0  0  0  0  0  0  0
   20.3295   18.6417   21.4762 C   0  0  0  0  0  0  0  0  0  0  0  0
   21.3848   18.4270   21.2575 H   0  0  0  0  0  0  0  0  0  0  0  0
   19.7962   17.6816   21.4402 H   0  0  0  0  0  0  0  0  0  0  0  0
   19.7619   19.5867   20.3936 C   0  0  0  0  0  0  0  0  0  0  0  0
   20.2936   20.5482   20.4243 H   0  0  0  0  0  0  0  0  0  0  0  0
   18.7052   19.8023   20.6057 H   0  0  0  0  0  0  0  0  0  0  0  0
   19.8861   18.9781   18.9804 C   0  0  0  0  0  0  0  0  0  0  0  0
   20.9359   18.7830   18.7253 H   0  0  0  0  0  0  0  0  0  0  0  0
   19.4781   19.6632   18.2260 H   0  0  0  0  0  0  0  0  0  0  0  0
   19.3352   18.0313   18.9084 H   0  0  0  0  0  0  0  0  0  0  0  0
   19.3893   19.7566   27.3064 C   0  0  0  0  0  0  0  0  0  0  0  0
   19.9416   20.6983   27.2764 H   0  0  0  0  0  0  0  0  0  0  0  0
   18.3732   19.9360   27.6650 H   0  0  0  0  0  0  0  0  0  0  0  0
   19.8953   19.0517   27.9697 H   0  0  0  0  0  0  0  0  0  0  0  0
  1  2  1  0  0  0  0
  1  3  1  0  0  0  0
  1  4  1  0  0  0  0
  4  5  1  0  0  0  0
  4  6  1  0  0  0  0
  4  7  1  0  0  0  0
  7  8  1  0  0  0  0
  7  9  1  0  0  0  0
  7 10  1  0  0  0  0
 10 11  1  0  0  0  0
 10 12  1  0  0  0  0
 10 13  1  0  0  0  0
 13 14  1  0  0  0  0
 13 15  1  0  0  0  0
 13 16  1  0  0  0  0
 16 17  1  0  0  0  0
 16 18  1  0  0  0  0
 16 19  1  0  0  0  0
 19 20  1  0  0  0  0
 19 21  1  0  0  0  0
 19 22  1  0  0  0  0
  1 23  1  0  0  0  0
 23 24  1  0  0  0  0
 23 25  1  0  0  0  0
 23 26  1  0  0  0  0
M  END
> <VM2 Rank>
5

> <Conf_Id>
1541

> <Probability>
3.07

> <Sum Probability>
21.34

> <Delta G>
0.476

> <G>
75.942

> <E>
43.687

> <-TS>
32.255

> <U+W>
22.225

> <U>
71.142

> <W>
-48.917

> <W(PB)>
-51.254

> <W(SA)>
2.337

> <Valence>
1.835

> <Coulomb>
69.101

> <VdW>
0.206

> <VdW6>
-5.849

> <VdW12>
6.055

> <Bond>
0.142

> <Angle>
0.413

> <Pdih>
1.279

> <Idih>
0.000

> <Tether>
0.000

$$$$
VeraChem MOL file


 26 25  0  0  0  0  0  0  0  0999 V2000     
   19.9281   18.8063   26.2895 N   0  3  0  0  0  0  0  0  0  0  0  0
   20.7994   19.0418   26.7899 H   0  0  0  0  0  0  0  0  0  0  0  0
   19.8671   17.7766   26.3145 H   0  0  0  0  0  0  0  0  0  0  0  0
   20.0011   19.2914   24.8557 C   0  0  0  0  0  0  0  0  0  0  0  0
   20.0753   20.3816   24.8739 H   0  0  0  0  0  0  0  0  0  0  0  0
   19.0648   19.0176   24.3639 H   0  0  0  0  0  0  0  0  0  0  0  0
   21.1921   18.7039   24.0742 C   0  0  0  0  0  0  0  0  0  0  0  0
   22.1235   18.9486   24.6020 H   0  0  0  0  0  0  0  0  0  0  0  0
   21.1186   17.6083   24.0576 H   0  0  0  0  0  0  0  0  0  0  0  0
   21.2799   19.2410   22.6261 C   0  0  0  0  0  0  0  0  0  0  0  0
   22.1973   18.8534   22.1618 H   0  0  0  0  0  0  0  0  0  0  0  0
   21.3810   20.3351   22.6466 H   0  0  0  0  0  0  0  0  0  0  0  0
   20.0626   18.8451   21.7557 C   0  0  0  0  0  0  0  0  0  0  0  0
   19.9445   17.7527   21.7645 H   0  0  0  0  0  0  0  0  0  0  0  0
   19.1429   19.2680   22.1815 H   0  0  0  0  0  0  0  0  0  0  0  0
   20.2163   19.3333   20.2979 C   0  0  0  0  0  0  0  0  0  0  0  0
   21.1299   18.9091   19.8583 H   0  0  0  0  0  0  0  0  0  0  0  0
   20.3355   20.4258   20.2831 H   0  0  0  0  0  0  0  0  0  0  0  0
   19.0011   18.9393   19.4312 C   0  0  0  0  0  0  0  0  0  0  0  0
   18.8759   17.8491   19.3990 H   0  0  0  0  0  0  0  0  0  0  0  0
   19.1290   19.2940   18.4003 H   0  0  0  0  0  0  0  0  0  0  0  0
   18.0755   19.3782   19.8258 H   0  0  0  0  0  0  0  0  0  0  0  0
   18.7267   19.4296   26.9866 C   0  0  0  0  0  0  0  0  0  0  0  0
   17.8152   19.1396   26.4595 H   0  0  0  0  0  0  0  0  0  0  0  0
   18.6859   19.0723   28.0180 H   0  0  0  0  0  0  0  0  0  0  0  0
   18.8300   20.5169   26.9768 H   0  0  0  0  0  0  0  0  0  0  0  0
  1  2  1  0  0  0  0
  1  3  1  0  0  0  0
  1  4  1  0  0  0  0
  4  5  1  0  0  0  0
  4  6  1  0  0  0  0
  4  7  1  0  0  0  0
  7  8  1  0  0  0  0
  7  9  1  0  0  0  0
  7 10  1  0  0  0  0
 10 11  1  0  0  0  0
 10 12  1  0  0  0  0
 10 13  1  0  0  0  0
 13 14  1  0  0  0  0
 13 15  1  0  0  0  0
 13 16  1  0  0  0  0
 16 17  1  0  0  0  0
 16 18  1  0  0  0  0
 16 19  1  0  0  0  0
 19 20  1  0  0  0  0
 19 21  1  0  0  0  0
 19 22  1  0  0  0  0
  1 23  1  0  0  0  0
 23 24  1  0  0  0  0
 23 25  1  0  0  0  0
 23 26  1  0  0  0  0
M  END
> <VM2 Rank>
6

> <Conf_Id>
1039

> <Probability>
2.67

> <Sum Probability>
24.01

> <Delta G>
0.560

> <G>
76.026

> <E>
43.766

> <-TS>
32.260

> <U+W>
22.304

> <U>
71.138

> <W>
-48.833

> <W(PB)>
-51.178

> <W(SA)>
2.344

> <Valence>
2.016

> <Coulomb>
68.932

> <VdW>
0.190

> <VdW6>
-5.902

> <VdW12>
6.092

> <Bond>
0.149

> <Angle>
0.477

> <Pdih>
1.390

> <Idih>
0.000

> <Tether>
0.000

$$$$
VeraChem MOL file


 26 25  0  0  0  0  0  0  0  0999 V2000     
   20.0151   18.8153   26.2927 N   0  3  0  0  0  0  0  0  0  0  0  0
   20.2815   17.8191   26.3293 H   0  0  0  0  0  0  0  0  0  0  0  0
   19.0813   18.8659   26.7291 H   0  0  0  0  0  0  0  0  0  0  0  0
   19.9460   19.2857   24.8538 C   0  0  0  0  0  0  0  0  0  0  0  0
   20.9506   19.2107   24.4308 H   0  0  0  0  0  0  0  0  0  0  0  0
   19.6515   20.3381   24.8588 H   0  0  0  0  0  0  0  0  0  0  0  0
   18.9565   18.4748   23.9950 C   0  0  0  0  0  0  0  0  0  0  0  0
   19.2514   17.4169   23.9914 H   0  0  0  0  0  0  0  0  0  0  0  0
   17.9602   18.5219   24.4546 H   0  0  0  0  0  0  0  0  0  0  0  0
   18.8633   18.9934   22.5405 C   0  0  0  0  0  0  0  0  0  0  0  0
   18.5417   20.0442   22.5461 H   0  0  0  0  0  0  0  0  0  0  0  0
   18.0781   18.4315   22.0159 H   0  0  0  0  0  0  0  0  0  0  0  0
   20.1934   18.8584   21.7603 C   0  0  0  0  0  0  0  0  0  0  0  0
   20.9764   19.4556   22.2464 H   0  0  0  0  0  0  0  0  0  0  0  0
   20.5292   17.8125   21.7850 H   0  0  0  0  0  0  0  0  0  0  0  0
   20.0465   19.3161   20.2919 C   0  0  0  0  0  0  0  0  0  0  0  0
   19.7099   20.3619   20.2611 H   0  0  0  0  0  0  0  0  0  0  0  0
   19.2706   18.7189   19.7924 H   0  0  0  0  0  0  0  0  0  0  0  0
   21.3738   19.1824   19.5151 C   0  0  0  0  0  0  0  0  0  0  0  0
   21.7189   18.1403   19.4994 H   0  0  0  0  0  0  0  0  0  0  0  0
   22.1616   19.7966   19.9705 H   0  0  0  0  0  0  0  0  0  0  0  0
   21.2493   19.5114   18.4753 H   0  0  0  0  0  0  0  0  0  0  0  0
   21.0134   19.6640   27.0677 C   0  0  0  0  0  0  0  0  0  0  0  0
   21.9995   19.5684   26.6078 H   0  0  0  0  0  0  0  0  0  0  0  0
   20.6930   20.7079   27.0428 H   0  0  0  0  0  0  0  0  0  0  0  0
   21.0534   19.3150   28.1020 H   0  0  0  0  0  0  0  0  0  0  0  0
  1  2  1  0  0  0  0
  1  3  1  0  0  0  0
  1  4  1  0  0  0  0
  4  5  1  0  0  0  0
  4  6  1  0  0  0  0
  4  7  1  0  0  0  0
  7  8  1  0  0  0  0
  7  9  1  0  0  0  0
  7 10  1  0  0  0  0
 10 11  1  0  0  0  0
 10 12  1  0  0  0  0
 10 13  1  0  0  0  0
 13 14  1  0  0  0  0
 13 15  1  0  0  0  0
 13 16  1  0  0  0  0
 16 17  1  0  0  0  0
 16 18  1  0  0  0  0
 16 19  1  0  0  0  0
 19 20  1  0  0  0  0
 19 21  1  0  0  0  0
 19 22  1  0  0  0  0
  1 23  1  0  0  0  0
 23 24  1  0  0  0  0
 23 25  1  0  0  0  0
 23 26  1  0  0  0  0
M  END
> <VM2 Rank>
7

> <Conf_Id>
1805

> <Probability>
2.54

> <Sum Probability>
26.55

> <Delta G>
0.591

> <G>
76.057

> <E>
43.796

> <-TS>
32.260

> <U+W>
22.335

> <U>
71.138

> <W>
-48.803

> <W(PB)>
-51.140

> <W(SA)>
2.337

> <Valence>
2.016

> <Coulomb>
68.932

> <VdW>
0.190

> <VdW6>
-5.902

> <VdW12>
6.092

> <Bond>
0.149

> <Angle>
0.477

> <Pdih>
1.390

> <Idih>
0.000

> <Tether>
0.000

$$$$
VeraChem MOL file


 26 25  0  0  0  0  0  0  0  0999 V2000     
   19.5898   19.7659   26.0203 N   0  3  0  0  0  0  0  0  0  0  0  0
   18.9699   19.9958   26.8132 H   0  0  0  0  0  0  0  0  0  0  0  0
   19.4484   20.5278   25.3404 H   0  0  0  0  0  0  0  0  0  0  0  0
   19.1669   18.4374   25.4125 C   0  0  0  0  0  0  0  0  0  0  0  0
   18.0907   18.4906   25.2292 H   0  0  0  0  0  0  0  0  0  0  0  0
   19.3419   17.6608   26.1614 H   0  0  0  0  0  0  0  0  0  0  0  0
   19.8814   18.0564   24.0973 C   0  0  0  0  0  0  0  0  0  0  0  0
   20.9580   17.9416   24.2782 H   0  0  0  0  0  0  0  0  0  0  0  0
   19.5153   17.0713   23.7791 H   0  0  0  0  0  0  0  0  0  0  0  0
   19.6409   19.0828   22.9649 C   0  0  0  0  0  0  0  0  0  0  0  0
   20.0424   20.0619   23.2586 H   0  0  0  0  0  0  0  0  0  0  0  0
   18.5605   19.2129   22.8118 H   0  0  0  0  0  0  0  0  0  0  0  0
   20.3007   18.6403   21.6390 C   0  0  0  0  0  0  0  0  0  0  0  0
   21.3805   18.5069   21.7927 H   0  0  0  0  0  0  0  0  0  0  0  0
   19.8999   17.6628   21.3369 H   0  0  0  0  0  0  0  0  0  0  0  0
   20.0645   19.6653   20.5073 C   0  0  0  0  0  0  0  0  0  0  0  0
   20.4664   20.6445   20.8033 H   0  0  0  0  0  0  0  0  0  0  0  0
   18.9855   19.8008   20.3483 H   0  0  0  0  0  0  0  0  0  0  0  0
   20.7247   19.2199   19.1849 C   0  0  0  0  0  0  0  0  0  0  0  0
   20.3180   18.2587   18.8446 H   0  0  0  0  0  0  0  0  0  0  0  0
   21.8104   19.1089   19.3033 H   0  0  0  0  0  0  0  0  0  0  0  0
   20.5462   19.9599   18.3939 H   0  0  0  0  0  0  0  0  0  0  0  0
   21.0391   19.7220   26.4907 C   0  0  0  0  0  0  0  0  0  0  0  0
   21.1549   18.9185   27.2214 H   0  0  0  0  0  0  0  0  0  0  0  0
   21.6914   19.5412   25.6339 H   0  0  0  0  0  0  0  0  0  0  0  0
   21.2945   20.6789   26.9512 H   0  0  0  0  0  0  0  0  0  0  0  0
  1  2  1  0  0  0  0
  1  3  1  0  0  0  0
  1  4  1  0  0  0  0
  4  5  1  0  0  0  0
  4  6  1  0  0  0  0
  4  7  1  0  0  0  0
  7  8  1  0  0  0  0
  7  9  1  0  0  0  0
  7 10  1  0  0  0  0
 10 11  1  0  0  0  0
 10 12  1  0  0  0  0
 10 13  1  0  0  0  0
 13 14  1  0  0  0  0
 13 15  1  0  0  0  0
 13 16  1  0  0  0  0
 16 17  1  0  0  0  0
 16 18  1  0  0  0  0
 16 19  1  0  0  0  0
 19 20  1  0  0  0  0
 19 21  1  0  0  0  0
 19 22  1  0  0  0  0
  1 23  1  0  0  0  0
 23 24  1  0  0  0  0
 23 25  1  0  0  0  0
 23 26  1  0  0  0  0
M  END
> <VM2 Rank>
8

> <Conf_Id>
1800

> <Probability>
2.52

> <Sum Probability>
29.07

> <Delta G>
0.594

> <G>
76.060

> <E>
43.581

> <-TS>
32.479

> <U+W>
22.119

> <U>
71.480

> <W>
-49.360

> <W(PB)>
-51.654

> <W(SA)>
2.294

> <Valence>
2.085

> <Coulomb>
68.999

> <VdW>
0.396

> <VdW6>
-6.753

> <VdW12>
7.148

> <Bond>
0.184

> <Angle>
0.576

> <Pdih>
1.325

> <Idih>
0.000

> <Tether>
0.000

$$$$
VeraChem MOL file


 26 25  0  0  0  0  0  0  0  0999 V2000     
   20.1694   19.8256   26.0409 N   0  3  0  0  0  0  0  0  0  0  0  0
   20.1998   20.6052   25.3670 H   0  0  0  0  0  0  0  0  0  0  0  0
   20.6727   20.1713   26.8734 H   0  0  0  0  0  0  0  0  0  0  0  0
   20.8954   18.6155   25.4736 C   0  0  0  0  0  0  0  0  0  0  0  0
   20.8303   17.8142   26.2140 H   0  0  0  0  0  0  0  0  0  0  0  0
   21.9484   18.8880   25.3656 H   0  0  0  0  0  0  0  0  0  0  0  0
   20.3671   18.1065   24.1145 C   0  0  0  0  0  0  0  0  0  0  0  0
   20.9474   17.2189   23.8298 H   0  0  0  0  0  0  0  0  0  0  0  0
   19.3265   17.7736   24.2205 H   0  0  0  0  0  0  0  0  0  0  0  0
   20.4723   19.1685   22.9943 C   0  0  0  0  0  0  0  0  0  0  0  0
   21.5116   19.5169   22.9162 H   0  0  0  0  0  0  0  0  0  0  0  0
   19.8603   20.0432   23.2521 H   0  0  0  0  0  0  0  0  0  0  0  0
   20.0108   18.6105   21.6288 C   0  0  0  0  0  0  0  0  0  0  0  0
   20.6224   17.7372   21.3624 H   0  0  0  0  0  0  0  0  0  0  0  0
   18.9727   18.2590   21.7074 H   0  0  0  0  0  0  0  0  0  0  0  0
   20.1120   19.6702   20.5089 C   0  0  0  0  0  0  0  0  0  0  0  0
   21.1493   20.0236   20.4249 H   0  0  0  0  0  0  0  0  0  0  0  0
   19.4995   20.5449   20.7689 H   0  0  0  0  0  0  0  0  0  0  0  0
   19.6507   19.1092   19.1468 C   0  0  0  0  0  0  0  0  0  0  0  0
   19.7298   19.8757   18.3649 H   0  0  0  0  0  0  0  0  0  0  0  0
   18.6047   18.7787   19.1896 H   0  0  0  0  0  0  0  0  0  0  0  0
   20.2674   18.2534   18.8428 H   0  0  0  0  0  0  0  0  0  0  0  0
   18.7302   19.4841   26.4092 C   0  0  0  0  0  0  0  0  0  0  0  0
   18.7298   18.6686   27.1357 H   0  0  0  0  0  0  0  0  0  0  0  0
   18.2538   20.3656   26.8439 H   0  0  0  0  0  0  0  0  0  0  0  0
   18.1899   19.1804   25.5103 H   0  0  0  0  0  0  0  0  0  0  0  0
  1  2  1  0  0  0  0
  1  3  1  0  0  0  0
  1  4  1  0  0  0  0
  4  5  1  0  0  0  0
  4  6  1  0  0  0  0
  4  7  1  0  0  0  0
  7  8  1  0  0  0  0
  7  9  1  0  0  0  0
  7 10  1  0  0  0  0
 10 11  1  0  0  0  0
 10 12  1  0  0  0  0
 10 13  1  0  0  0  0
 13 14  1  0  0  0  0
 13 15  1  0  0  0  0
 13 16  1  0  0  0  0
 16 17  1  0  0  0  0
 16 18  1  0  0  0  0
 16 19  1  0  0  0  0
 19 20  1  0  0  0  0
 19 21  1  0  0  0  0
 19 22  1  0  0  0  0
  1 23  1  0  0  0  0
 23 24  1  0  0  0  0
 23 25  1  0  0  0  0
 23 26  1  0  0  0  0
M  END
> <VM2 Rank>
9

> <Conf_Id>
1021

> <Probability>
2.37

> <Sum Probability>
31.43

> <Delta G>
0.632

> <G>
76.098

> <E>
43.619

> <-TS>
32.479

> <U+W>
22.157

> <U>
71.479

> <W>
-49.323

> <W(PB)>
-51.599

> <W(SA)>
2.276

> <Valence>
2.085

> <Coulomb>
68.999

> <VdW>
0.395

> <VdW6>
-6.752

> <VdW12>
7.148

> <Bond>
0.184

> <Angle>
0.576

> <Pdih>
1.325

> <Idih>
0.000

> <Tether>
0.000

$$$$
VeraChem MOL file


 26 25  0  0  0  0  0  0  0  0999 V2000     
   19.9281   18.7435   26.4135 N   0  3  0  0  0  0  0  0  0  0  0  0
   20.5508   17.9223   26.4656 H   0  0  0  0  0  0  0  0  0  0  0  0
   18.9719   18.3699   26.5182 H   0  0  0  0  0  0  0  0  0  0  0  0
   20.0776   19.4288   25.0700 C   0  0  0  0  0  0  0  0  0  0  0  0
   21.1024   19.8015   24.9960 H   0  0  0  0  0  0  0  0  0  0  0  0
   19.3979   20.2845   25.0526 H   0  0  0  0  0  0  0  0  0  0  0  0
   19.7757   18.5031   23.8775 C   0  0  0  0  0  0  0  0  0  0  0  0
   20.4497   17.6366   23.9080 H   0  0  0  0  0  0  0  0  0  0  0  0
   18.7509   18.1180   23.9652 H   0  0  0  0  0  0  0  0  0  0  0  0
   19.9409   19.2431   22.5316 C   0  0  0  0  0  0  0  0  0  0  0  0
   20.9649   19.6332   22.4602 H   0  0  0  0  0  0  0  0  0  0  0  0
   19.2665   20.1104   22.5054 H   0  0  0  0  0  0  0  0  0  0  0  0
   19.6428   18.3190   21.3262 C   0  0  0  0  0  0  0  0  0  0  0  0
   20.3493   17.4774   21.3203 H   0  0  0  0  0  0  0  0  0  0  0  0
   18.6424   17.8811   21.4483 H   0  0  0  0  0  0  0  0  0  0  0  0
   19.6964   19.0478   19.9615 C   0  0  0  0  0  0  0  0  0  0  0  0
   18.9748   19.8767   19.9541 H   0  0  0  0  0  0  0  0  0  0  0  0
   19.3709   18.3507   19.1766 H   0  0  0  0  0  0  0  0  0  0  0  0
   21.1028   19.5796   19.6029 C   0  0  0  0  0  0  0  0  0  0  0  0
   21.1064   20.0037   18.5904 H   0  0  0  0  0  0  0  0  0  0  0  0
   21.8488   18.7748   19.6319 H   0  0  0  0  0  0  0  0  0  0  0  0
   21.4230   20.3708   20.2921 H   0  0  0  0  0  0  0  0  0  0  0  0
   20.2437   19.7250   27.5338 C   0  0  0  0  0  0  0  0  0  0  0  0
   19.5515   20.5680   27.4783 H   0  0  0  0  0  0  0  0  0  0  0  0
   20.1323   19.2189   28.4953 H   0  0  0  0  0  0  0  0  0  0  0  0
   21.2702   20.0808   27.4210 H   0  0  0  0  0  0  0  0  0  0  0  0
  1  2  1  0  0  0  0
  1  3  1  0  0  0  0
  1  4  1  0  0  0  0
  4  5  1  0  0  0  0
  4  6  1  0  0  0  0
  4  7  1  0  0  0  0
  7  8  1  0  0  0  0
  7  9  1  0  0  0  0
  7 10  1  0  0  0  0
 10 11  1  0  0  0  0
 10 12  1  0  0  0  0
 10 13  1  0  0  0  0
 13 14  1  0  0  0  0
 13 15  1  0  0  0  0
 13 16  1  0  0  0  0
 16 17  1  0  0  0  0
 16 18  1  0  0  0  0
 16 19  1  0  0  0  0
 19 20  1  0  0  0  0
 19 21  1  0  0  0  0
 19 22  1  0  0  0  0
  1 23  1  0  0  0  0
 23 24  1  0  0  0  0
 23 25  1  0  0  0  0
 23 26  1  0  0  0  0
M  END
> <VM2 Rank>
10

> <Conf_Id>
1697

> <Probability>
2.20

> <Sum Probability>
33.63

> <Delta G>
0.675

> <G>
76.141

> <E>
43.869

> <-TS>
32.272

> <U+W>
22.407

> <U>
71.035

> <W>
-48.628

> <W(PB)>
-50.937

> <W(SA)>
2.309

> <Valence>
2.223

> <Coulomb>
68.516

> <VdW>
0.297

> <VdW6>
-5.882

> <VdW12>
6.178

> <Bond>
0.162

> <Angle>
0.596

> <Pdih>
1.465

> <Idih>
0.000

> <Tether>
0.000

$$$$
VeraChem MOL file


 26 25  0  0  0  0  0  0  0  0999 V2000     
   20.0193   18.7530   26.4167 N   0  3  0  0  0  0  0  0  0  0  0  0
   21.0217   18.5804   26.5908 H   0  0  0  0  0  0  0  0  0  0  0  0
   19.5741   17.8221   26.4311 H   0  0  0  0  0  0  0  0  0  0  0  0
   19.8283   19.4032   25.0612 C   0  0  0  0  0  0  0  0  0  0  0  0
   20.3198   20.3791   25.0852 H   0  0  0  0  0  0  0  0  0  0  0  0
   18.7570   19.5608   24.9129 H   0  0  0  0  0  0  0  0  0  0  0  0
   20.3944   18.5666   23.8995 C   0  0  0  0  0  0  0  0  0  0  0  0
   21.4672   18.3966   24.0614 H   0  0  0  0  0  0  0  0  0  0  0  0
   19.9096   17.5812   23.8889 H   0  0  0  0  0  0  0  0  0  0  0  0
   20.1773   19.2673   22.5399 C   0  0  0  0  0  0  0  0  0  0  0  0
   20.6622   20.2534   22.5548 H   0  0  0  0  0  0  0  0  0  0  0  0
   19.1031   19.4424   22.3943 H   0  0  0  0  0  0  0  0  0  0  0  0
   20.7401   18.4313   21.3651 C   0  0  0  0  0  0  0  0  0  0  0  0
   21.7974   18.2043   21.5600 H   0  0  0  0  0  0  0  0  0  0  0  0
   20.2208   17.4642   21.3158 H   0  0  0  0  0  0  0  0  0  0  0  0
   20.6357   19.1440   19.9948 C   0  0  0  0  0  0  0  0  0  0  0  0
   21.1496   18.5328   19.2396 H   0  0  0  0  0  0  0  0  0  0  0  0
   21.1733   20.1018   20.0319 H   0  0  0  0  0  0  0  0  0  0  0  0
   19.1793   19.3826   19.5348 C   0  0  0  0  0  0  0  0  0  0  0  0
   19.1609   19.8044   18.5216 H   0  0  0  0  0  0  0  0  0  0  0  0
   18.6582   20.0877   20.1942 H   0  0  0  0  0  0  0  0  0  0  0  0
   18.6115   18.4433   19.5173 H   0  0  0  0  0  0  0  0  0  0  0  0
   19.4336   19.6420   27.5050 C   0  0  0  0  0  0  0  0  0  0  0  0
   19.5779   19.1622   28.4757 H   0  0  0  0  0  0  0  0  0  0  0  0
   19.9425   20.6083   27.4920 H   0  0  0  0  0  0  0  0  0  0  0  0
   18.3667   19.7829   27.3182 H   0  0  0  0  0  0  0  0  0  0  0  0
  1  2  1  0  0  0  0
  1  3  1  0  0  0  0
  1  4  1  0  0  0  0
  4  5  1  0  0  0  0
  4  6  1  0  0  0  0
  4  7  1  0  0  0  0
  7  8  1  0  0  0  0
  7  9  1  0  0  0  0
  7 10  1  0  0  0  0
 10 11  1  0  0  0  0
 10 12  1  0  0  0  0
 10 13  1  0  0  0  0
 13 14  1  0  0  0  0
 13 15  1  0  0  0  0
 13 16  1  0  0  0  0
 16 17  1  0  0  0  0
 16 18  1  0  0  0  0
 16 19  1  0  0  0  0
 19 20  1  0  0  0  0
 19 21  1  0  0  0  0
 19 22  1  0  0  0  0
  1 23  1  0  0  0  0
 23 24  1  0  0  0  0
 23 25  1  0  0  0  0
 23 26  1  0  0  0  0
M  END
> <VM2 Rank>
11

> <Conf_Id>
441

> <Probability>
2.17

> <Sum Probability>
35.80

> <Delta G>
0.685

> <G>
76.151

> <E>
43.878

> <-TS>
32.272

> <U+W>
22.416

> <U>
71.035

> <W>
-48.619

> <W(PB)>
-50.943

> <W(SA)>
2.325

> <Valence>
2.223

> <Coulomb>
68.516

> <VdW>
0.297

> <VdW6>
-5.882

> <VdW12>
6.178

> <Bond>
0.162

> <Angle>
0.596

> <Pdih>
1.465

> <Idih>
0.000

> <Tether>
0.000

$$$$
VeraChem MOL file


 26 25  0  0  0  0  0  0  0  0999 V2000     
   19.4921   18.7749   26.3216 N   0  3  0  0  0  0  0  0  0  0  0  0
   18.8899   18.0250   26.6970 H   0  0  0  0  0  0  0  0  0  0  0  0
   19.1478   19.6401   26.7658 H   0  0  0  0  0  0  0  0  0  0  0  0
   19.3239   18.8555   24.8136 C   0  0  0  0  0  0  0  0  0  0  0  0
   18.2509   18.8752   24.6067 H   0  0  0  0  0  0  0  0  0  0  0  0
   19.7364   17.9405   24.3822 H   0  0  0  0  0  0  0  0  0  0  0  0
   19.9826   20.0899   24.1616 C   0  0  0  0  0  0  0  0  0  0  0  0
   19.6092   20.9972   24.6545 H   0  0  0  0  0  0  0  0  0  0  0  0
   21.0677   20.0672   24.3258 H   0  0  0  0  0  0  0  0  0  0  0  0
   19.6941   20.1870   22.6450 C   0  0  0  0  0  0  0  0  0  0  0  0
   20.1113   21.1306   22.2666 H   0  0  0  0  0  0  0  0  0  0  0  0
   18.6087   20.2398   22.4810 H   0  0  0  0  0  0  0  0  0  0  0  0
   20.2880   19.0077   21.8374 C   0  0  0  0  0  0  0  0  0  0  0  0
   21.3677   18.9380   22.0294 H   0  0  0  0  0  0  0  0  0  0  0  0
   19.8437   18.0611   22.1732 H   0  0  0  0  0  0  0  0  0  0  0  0
   20.0454   19.1707   20.3203 C   0  0  0  0  0  0  0  0  0  0  0  0
   20.4937   20.1116   19.9713 H   0  0  0  0  0  0  0  0  0  0  0  0
   18.9666   19.2415   20.1226 H   0  0  0  0  0  0  0  0  0  0  0  0
   20.6370   17.9932   19.5162 C   0  0  0  0  0  0  0  0  0  0  0  0
   20.4552   18.1273   18.4420 H   0  0  0  0  0  0  0  0  0  0  0  0
   20.1824   17.0407   19.8182 H   0  0  0  0  0  0  0  0  0  0  0  0
   21.7217   17.9174   19.6672 H   0  0  0  0  0  0  0  0  0  0  0  0
   20.9448   18.5111   26.7013 C   0  0  0  0  0  0  0  0  0  0  0  0
   21.2749   17.5812   26.2330 H   0  0  0  0  0  0  0  0  0  0  0  0
   21.5653   19.3406   26.3564 H   0  0  0  0  0  0  0  0  0  0  0  0
   21.0198   18.4237   27.7875 H   0  0  0  0  0  0  0  0  0  0  0  0
  1  2  1  0  0  0  0
  1  3  1  0  0  0  0
  1  4  1  0  0  0  0
  4  5  1  0  0  0  0
  4  6  1  0  0  0  0
  4  7  1  0  0  0  0
  7  8  1  0  0  0  0
  7  9  1  0  0  0  0
  7 10  1  0  0  0  0
 10 11  1  0  0  0  0
 10 12  1  0  0  0  0
 10 13  1  0  0  0  0
 13 14  1  0  0  0  0
 13 15  1  0  0  0  0
 13 16  1  0  0  0  0
 16 17  1  0  0  0  0
 16 18  1  0  0  0  0
 16 19  1  0  0  0  0
 19 20  1  0  0  0  0
 19 21  1  0  0  0  0
 19 22  1  0  0  0  0
  1 23  1  0  0  0  0
 23 24  1  0  0  0  0
 23 25  1  0  0  0  0
 23 26  1  0  0  0  0
M  END
> <VM2 Rank>
12

> <Conf_Id>
836

> <Probability>
1.98

> <Sum Probability>
37.78

> <Delta G>
0.739

> <G>
76.205

> <E>
43.779

> <-TS>
32.426

> <U+W>
22.317

> <U>
71.511

> <W>
-49.194

> <W(PB)>
-51.483

> <W(SA)>
2.289

> <Valence>
2.291

> <Coulomb>
68.784

> <VdW>
0.437

> <VdW6>
-6.615

> <VdW12>
7.052

> <Bond>
0.185

> <Angle>
0.586

> <Pdih>
1.520

> <Idih>
0.000

> <Tether>
0.000

$$$$
VeraChem MOL file


 26 25  0  0  0  0  0  0  0  0999 V2000     
   20.4430   18.8683   26.3553 N   0  3  0  0  0  0  0  0  0  0  0  0
   20.5804   19.7809   26.8166 H   0  0  0  0  0  0  0  0  0  0  0  0
   21.1517   18.2473   26.7773 H   0  0  0  0  0  0  0  0  0  0  0  0
   20.6979   18.9906   24.8624 C   0  0  0  0  0  0  0  0  0  0  0  0
   20.5025   18.0158   24.4093 H   0  0  0  0  0  0  0  0  0  0  0  0
   21.7584   19.2199   24.7313 H   0  0  0  0  0  0  0  0  0  0  0  0
   19.8592   20.0779   24.1572 C   0  0  0  0  0  0  0  0  0  0  0  0
   18.7905   19.8436   24.2450 H   0  0  0  0  0  0  0  0  0  0  0  0
   20.0137   21.0371   24.6688 H   0  0  0  0  0  0  0  0  0  0  0  0
   20.2292   20.2396   22.6639 C   0  0  0  0  0  0  0  0  0  0  0  0
   21.2923   20.5034   22.5762 H   0  0  0  0  0  0  0  0  0  0  0  0
   19.6642   21.0867   22.2507 H   0  0  0  0  0  0  0  0  0  0  0  0
   19.9339   18.9729   21.8249 C   0  0  0  0  0  0  0  0  0  0  0  0
   20.5289   18.1284   22.1976 H   0  0  0  0  0  0  0  0  0  0  0  0
   18.8775   18.6935   21.9411 H   0  0  0  0  0  0  0  0  0  0  0  0
   20.2461   19.1904   20.3274 C   0  0  0  0  0  0  0  0  0  0  0  0
   21.3018   19.4708   20.2054 H   0  0  0  0  0  0  0  0  0  0  0  0
   19.6492   20.0286   19.9413 H   0  0  0  0  0  0  0  0  0  0  0  0
   19.9524   17.9259   19.4920 C   0  0  0  0  0  0  0  0  0  0  0  0
   20.5610   17.0778   19.8318 H   0  0  0  0  0  0  0  0  0  0  0  0
   20.1797   18.1001   18.4323 H   0  0  0  0  0  0  0  0  0  0  0  0
   18.8952   17.6398   19.5669 H   0  0  0  0  0  0  0  0  0  0  0  0
   19.0464   18.3244   26.6338 C   0  0  0  0  0  0  0  0  0  0  0  0
   18.3022   19.0197   26.2404 H   0  0  0  0  0  0  0  0  0  0  0  0
   18.9373   17.3513   26.1499 H   0  0  0  0  0  0  0  0  0  0  0  0
   18.9137   18.2166   27.7126 H   0  0  0  0  0  0  0  0  0  0  0  0
  1  2  1  0  0  0  0
  1  3  1  0  0  0  0
  1  4  1  0  0  0  0
  4  5  1  0  0  0  0
  4  6  1  0  0  0  0
  4  7  1  0  0  0  0
  7  8  1  0  0  0  0
  7  9  1  0  0  0  0
  7 10  1  0  0  0  0
 10 11  1  0  0  0  0
 10 12  1  0  0  0  0
 10 13  1  0  0  0  0
 13 14  1  0  0  0  0
 13 15  1  0  0  0  0
 13 16  1  0  0  0  0
 16 17  1  0  0  0  0
 16 18  1  0  0  0  0
 16 19  1  0  0  0  0
 19 20  1  0  0  0  0
 19 21  1  0  0  0  0
 19 22  1  0  0  0  0
  1 23  1  0  0  0  0
 23 24  1  0  0  0  0
 23 25  1  0  0  0  0
 23 26  1  0  0  0  0
M  END
> <VM2 Rank>
13

> <Conf_Id>
1586

> <Probability>
1.97

> <Sum Probability>
39.75

> <Delta G>
0.742

> <G>
76.208

> <E>
43.782

> <-TS>
32.426

> <U+W>
22.320

> <U>
71.511

> <W>
-49.192

> <W(PB)>
-51.480

> <W(SA)>
2.288

> <Valence>
2.291

> <Coulomb>
68.784

> <VdW>
0.437

> <VdW6>
-6.615

> <VdW12>
7.052

> <Bond>
0.185

> <Angle>
0.586

> <Pdih>
1.520

> <Idih>
0.000

> <Tether>
0.000

$$$$
VeraChem MOL file


 26 25  0  0  0  0  0  0  0  0999 V2000     
   19.5534   18.5509   26.1837 N   0  3  0  0  0  0  0  0  0  0  0  0
   20.0706   17.6582   26.2068 H   0  0  0  0  0  0  0  0  0  0  0  0
   18.5856   18.3010   25.9276 H   0  0  0  0  0  0  0  0  0  0  0  0
   20.1493   19.4735   25.1393 C   0  0  0  0  0  0  0  0  0  0  0  0
   21.1730   19.7065   25.4431 H   0  0  0  0  0  0  0  0  0  0  0  0
   19.5702   20.4004   25.1410 H   0  0  0  0  0  0  0  0  0  0  0  0
   20.1541   18.8685   23.7237 C   0  0  0  0  0  0  0  0  0  0  0  0
   20.7233   17.9294   23.7305 H   0  0  0  0  0  0  0  0  0  0  0  0
   19.1240   18.6216   23.4377 H   0  0  0  0  0  0  0  0  0  0  0  0
   20.7733   19.8455   22.6963 C   0  0  0  0  0  0  0  0  0  0  0  0
   21.7721   20.1433   23.0448 H   0  0  0  0  0  0  0  0  0  0  0  0
   20.1752   20.7664   22.6535 H   0  0  0  0  0  0  0  0  0  0  0  0
   20.9078   19.2473   21.2741 C   0  0  0  0  0  0  0  0  0  0  0  0
   21.4592   19.9616   20.6471 H   0  0  0  0  0  0  0  0  0  0  0  0
   21.5207   18.3362   21.3139 H   0  0  0  0  0  0  0  0  0  0  0  0
   19.5497   18.9335   20.6023 C   0  0  0  0  0  0  0  0  0  0  0  0
   18.9160   19.8314   20.6088 H   0  0  0  0  0  0  0  0  0  0  0  0
   19.0143   18.1615   21.1707 H   0  0  0  0  0  0  0  0  0  0  0  0
   19.7325   18.4474   19.1485 C   0  0  0  0  0  0  0  0  0  0  0  0
   20.3382   17.5325   19.1115 H   0  0  0  0  0  0  0  0  0  0  0  0
   20.2291   19.2111   18.5357 H   0  0  0  0  0  0  0  0  0  0  0  0
   18.7606   18.2267   18.6884 H   0  0  0  0  0  0  0  0  0  0  0  0
   19.5878   19.2234   27.5491 C   0  0  0  0  0  0  0  0  0  0  0  0
   19.0072   20.1477   27.5089 H   0  0  0  0  0  0  0  0  0  0  0  0
   19.1560   18.5486   28.2917 H   0  0  0  0  0  0  0  0  0  0  0  0
   20.6236   19.4480   27.8129 H   0  0  0  0  0  0  0  0  0  0  0  0
  1  2  1  0  0  0  0
  1  3  1  0  0  0  0
  1  4  1  0  0  0  0
  4  5  1  0  0  0  0
  4  6  1  0  0  0  0
  4  7  1  0  0  0  0
  7  8  1  0  0  0  0
  7  9  1  0  0  0  0
  7 10  1  0  0  0  0
 10 11  1  0  0  0  0
 10 12  1  0  0  0  0
 10 13  1  0  0  0  0
 13 14  1  0  0  0  0
 13 15  1  0  0  0  0
 13 16  1  0  0  0  0
 16 17  1  0  0  0  0
 16 18  1  0  0  0  0
 16 19  1  0  0  0  0
 19 20  1  0  0  0  0
 19 21  1  0  0  0  0
 19 22  1  0  0  0  0
  1 23  1  0  0  0  0
 23 24  1  0  0  0  0
 23 25  1  0  0  0  0
 23 26  1  0  0  0  0
M  END
> <VM2 Rank>
14

> <Conf_Id>
1745

> <Probability>
1.91

> <Sum Probability>
41.66

> <Delta G>
0.759

> <G>
76.225

> <E>
43.964

> <-TS>
32.261

> <U+W>
22.502

> <U>
71.348

> <W>
-48.846

> <W(PB)>
-51.157

> <W(SA)>
2.311

> <Valence>
2.261

> <Coulomb>
68.807

> <VdW>
0.280

> <VdW6>
-5.916

> <VdW12>
6.196

> <Bond>
0.164

> <Angle>
0.622

> <Pdih>
1.475

> <Idih>
0.000

> <Tether>
0.000

$$$$
VeraChem MOL file


 26 25  0  0  0  0  0  0  0  0999 V2000     
   20.4396   18.6411   26.2150 N   0  3  0  0  0  0  0  0  0  0  0  0
   21.4535   18.5931   26.0292 H   0  0  0  0  0  0  0  0  0  0  0  0
   20.1125   17.6625   26.2083 H   0  0  0  0  0  0  0  0  0  0  0  0
   19.7448   19.4323   25.1250 C   0  0  0  0  0  0  0  0  0  0  0  0
   20.1238   20.4568   25.1607 H   0  0  0  0  0  0  0  0  0  0  0  0
   18.6765   19.4522   25.3546 H   0  0  0  0  0  0  0  0  0  0  0  0
   19.9612   18.8489   23.7168 C   0  0  0  0  0  0  0  0  0  0  0  0
   21.0373   18.8165   23.5055 H   0  0  0  0  0  0  0  0  0  0  0  0
   19.5938   17.8144   23.6904 H   0  0  0  0  0  0  0  0  0  0  0  0
   19.2315   19.6885   22.6417 C   0  0  0  0  0  0  0  0  0  0  0  0
   19.6334   20.7112   22.6343 H   0  0  0  0  0  0  0  0  0  0  0  0
   18.1712   19.7765   22.9171 H   0  0  0  0  0  0  0  0  0  0  0  0
   19.3202   19.0856   21.2178 C   0  0  0  0  0  0  0  0  0  0  0  0
   18.9020   18.0695   21.2211 H   0  0  0  0  0  0  0  0  0  0  0  0
   18.6815   19.6787   20.5486 H   0  0  0  0  0  0  0  0  0  0  0  0
   20.7572   19.0566   20.6450 C   0  0  0  0  0  0  0  0  0  0  0  0
   21.3961   18.4044   21.2551 H   0  0  0  0  0  0  0  0  0  0  0  0
   21.1951   20.0636   20.6894 H   0  0  0  0  0  0  0  0  0  0  0  0
   20.7784   18.5539   19.1856 C   0  0  0  0  0  0  0  0  0  0  0  0
   20.3736   17.5360   19.1129 H   0  0  0  0  0  0  0  0  0  0  0  0
   21.8046   18.5366   18.7963 H   0  0  0  0  0  0  0  0  0  0  0  0
   20.1825   19.2061   18.5340 H   0  0  0  0  0  0  0  0  0  0  0  0
   20.1751   19.2832   27.5699 C   0  0  0  0  0  0  0  0  0  0  0  0
   19.0994   19.2927   27.7589 H   0  0  0  0  0  0  0  0  0  0  0  0
   20.6808   18.7039   28.3457 H   0  0  0  0  0  0  0  0  0  0  0  0
   20.5589   20.3057   27.5639 H   0  0  0  0  0  0  0  0  0  0  0  0
  1  2  1  0  0  0  0
  1  3  1  0  0  0  0
  1  4  1  0  0  0  0
  4  5  1  0  0  0  0
  4  6  1  0  0  0  0
  4  7  1  0  0  0  0
  7  8  1  0  0  0  0
  7  9  1  0  0  0  0
  7 10  1  0  0  0  0
 10 11  1  0  0  0  0
 10 12  1  0  0  0  0
 10 13  1  0  0  0  0
 13 14  1  0  0  0  0
 13 15  1  0  0  0  0
 13 16  1  0  0  0  0
 16 17  1  0  0  0  0
 16 18  1  0  0  0  0
 16 19  1  0  0  0  0
 19 20  1  0  0  0  0
 19 21  1  0  0  0  0
 19 22  1  0  0  0  0
  1 23  1  0  0  0  0
 23 24  1  0  0  0  0
 23 25  1  0  0  0  0
 23 26  1  0  0  0  0
M  END
> <VM2 Rank>
15

> <Conf_Id>
1808

> <Probability>
1.89

> <Sum Probability>
43.55

> <Delta G>
0.766

> <G>
76.232

> <E>
43.972

> <-TS>
32.261

> <U+W>
22.510

> <U>
71.349

> <W>
-48.839

> <W(PB)>
-51.152

> <W(SA)>
2.313

> <Valence>
2.262

> <Coulomb>
68.807

> <VdW>
0.280

> <VdW6>
-5.916

> <VdW12>
6.195

> <Bond>
0.164

> <Angle>
0.622

> <Pdih>
1.475

> <Idih>
0.000

> <Tether>
0.000

$$$$
VeraChem MOL file


 26 25  0  0  0  0  0  0  0  0999 V2000     
   19.6325   18.3062   26.1788 N   0  3  0  0  0  0  0  0  0  0  0  0
   20.3990   17.6164   26.2115 H   0  0  0  0  0  0  0  0  0  0  0  0
   18.7850   17.7750   26.4346 H   0  0  0  0  0  0  0  0  0  0  0  0
   19.4811   18.8573   24.7707 C   0  0  0  0  0  0  0  0  0  0  0  0
   18.6945   19.6157   24.7888 H   0  0  0  0  0  0  0  0  0  0  0  0
   19.1436   18.0332   24.1378 H   0  0  0  0  0  0  0  0  0  0  0  0
   20.7733   19.4554   24.1743 C   0  0  0  0  0  0  0  0  0  0  0  0
   21.1174   20.2845   24.8057 H   0  0  0  0  0  0  0  0  0  0  0  0
   21.5695   18.6994   24.1877 H   0  0  0  0  0  0  0  0  0  0  0  0
   20.5784   19.9794   22.7317 C   0  0  0  0  0  0  0  0  0  0  0  0
   21.5053   20.4737   22.4090 H   0  0  0  0  0  0  0  0  0  0  0  0
   19.7967   20.7517   22.7252 H   0  0  0  0  0  0  0  0  0  0  0  0
   20.2192   18.8635   21.7210 C   0  0  0  0  0  0  0  0  0  0  0  0
   20.9845   18.0758   21.7560 H   0  0  0  0  0  0  0  0  0  0  0  0
   19.2667   18.3945   22.0016 H   0  0  0  0  0  0  0  0  0  0  0  0
   20.1089   19.4085   20.2795 C   0  0  0  0  0  0  0  0  0  0  0  0
   21.0601   19.8732   19.9841 H   0  0  0  0  0  0  0  0  0  0  0  0
   19.3449   20.1977   20.2387 H   0  0  0  0  0  0  0  0  0  0  0  0
   19.7491   18.2952   19.2725 C   0  0  0  0  0  0  0  0  0  0  0  0
   20.5130   17.5068   19.2659 H   0  0  0  0  0  0  0  0  0  0  0  0
   19.6759   18.7014   18.2553 H   0  0  0  0  0  0  0  0  0  0  0  0
   18.7843   17.8343   19.5211 H   0  0  0  0  0  0  0  0  0  0  0  0
   19.8654   19.4245   27.1885 C   0  0  0  0  0  0  0  0  0  0  0  0
   19.0312   20.1280   27.1435 H   0  0  0  0  0  0  0  0  0  0  0  0
   19.9304   18.9934   28.1900 H   0  0  0  0  0  0  0  0  0  0  0  0
   20.7982   19.9394   26.9500 H   0  0  0  0  0  0  0  0  0  0  0  0
  1  2  1  0  0  0  0
  1  3  1  0  0  0  0
  1  4  1  0  0  0  0
  4  5  1  0  0  0  0
  4  6  1  0  0  0  0
  4  7  1  0  0  0  0
  7  8  1  0  0  0  0
  7  9  1  0  0  0  0
  7 10  1  0  0  0  0
 10 11  1  0  0  0  0
 10 12  1  0  0  0  0
 10 13  1  0  0  0  0
 13 14  1  0  0  0  0
 13 15  1  0  0  0  0
 13 16  1  0  0  0  0
 16 17  1  0  0  0  0
 16 18  1  0  0  0  0
 16 19  1  0  0  0  0
 19 20  1  0  0  0  0
 19 21  1  0  0  0  0
 19 22  1  0  0  0  0
  1 23  1  0  0  0  0
 23 24  1  0  0  0  0
 23 25  1  0  0  0  0
 23 26  1  0  0  0  0
M  END
> <VM2 Rank>
16

> <Conf_Id>
1308

> <Probability>
1.76

> <Sum Probability>
45.31

> <Delta G>
0.809

> <G>
76.275

> <E>
43.847

> <-TS>
32.428

> <U+W>
22.385

> <U>
71.628

> <W>
-49.242

> <W(PB)>
-51.545

> <W(SA)>
2.302

> <Valence>
2.314

> <Coulomb>
68.823

> <VdW>
0.491

> <VdW6>
-6.572

> <VdW12>
7.063

> <Bond>
0.188

> <Angle>
0.606

> <Pdih>
1.519

> <Idih>
0.000

> <Tether>
0.000

$$$$
VeraChem MOL file


 26 25  0  0  0  0  0  0  0  0999 V2000     
   20.4120   18.3857   26.2064 N   0  3  0  0  0  0  0  0  0  0  0  0
   21.3291   18.0341   26.5248 H   0  0  0  0  0  0  0  0  0  0  0  0
   19.7997   17.5555   26.1905 H   0  0  0  0  0  0  0  0  0  0  0  0
   20.5476   18.9658   24.8084 C   0  0  0  0  0  0  0  0  0  0  0  0
   21.0875   18.2309   24.2067 H   0  0  0  0  0  0  0  0  0  0  0  0
   21.1622   19.8669   24.8760 H   0  0  0  0  0  0  0  0  0  0  0  0
   19.2063   19.2956   24.1188 C   0  0  0  0  0  0  0  0  0  0  0  0
   18.5798   18.3946   24.0818 H   0  0  0  0  0  0  0  0  0  0  0  0
   18.6590   20.0339   24.7187 H   0  0  0  0  0  0  0  0  0  0  0  0
   19.3922   19.8584   22.6897 C   0  0  0  0  0  0  0  0  0  0  0  0
   20.0008   20.7724   22.7325 H   0  0  0  0  0  0  0  0  0  0  0  0
   18.4097   20.1581   22.2994 H   0  0  0  0  0  0  0  0  0  0  0  0
   20.0388   18.8450   21.7146 C   0  0  0  0  0  0  0  0  0  0  0  0
   21.0442   18.5755   22.0646 H   0  0  0  0  0  0  0  0  0  0  0  0
   19.4473   17.9191   21.7015 H   0  0  0  0  0  0  0  0  0  0  0  0
   20.1379   19.4115   20.2806 C   0  0  0  0  0  0  0  0  0  0  0  0
   20.7280   20.3387   20.2878 H   0  0  0  0  0  0  0  0  0  0  0  0
   19.1356   19.6770   19.9158 H   0  0  0  0  0  0  0  0  0  0  0  0
   20.7843   18.4009   19.3092 C   0  0  0  0  0  0  0  0  0  0  0  0
   21.8024   18.1421   19.6281 H   0  0  0  0  0  0  0  0  0  0  0  0
   20.8453   18.8208   18.2968 H   0  0  0  0  0  0  0  0  0  0  0  0
   20.1974   17.4747   19.2546 H   0  0  0  0  0  0  0  0  0  0  0  0
   19.8888   19.4271   27.1893 C   0  0  0  0  0  0  0  0  0  0  0  0
   18.8905   19.7453   26.8824 H   0  0  0  0  0  0  0  0  0  0  0  0
   19.8422   18.9848   28.1869 H   0  0  0  0  0  0  0  0  0  0  0  0
   20.5653   20.2844   27.1975 H   0  0  0  0  0  0  0  0  0  0  0  0
  1  2  1  0  0  0  0
  1  3  1  0  0  0  0
  1  4  1  0  0  0  0
  4  5  1  0  0  0  0
  4  6  1  0  0  0  0
  4  7  1  0  0  0  0
  7  8  1  0  0  0  0
  7  9  1  0  0  0  0
  7 10  1  0  0  0  0
 10 11  1  0  0  0  0
 10 12  1  0  0  0  0
 10 13  1  0  0  0  0
 13 14  1  0  0  0  0
 13 15  1  0  0  0  0
 13 16  1  0  0  0  0
 16 17  1  0  0  0  0
 16 18  1  0  0  0  0
 16 19  1  0  0  0  0
 19 20  1  0  0  0  0
 19 21  1  0  0  0  0
 19 22  1  0  0  0  0
  1 23  1  0  0  0  0
 23 24  1  0  0  0  0
 23 25  1  0  0  0  0
 23 26  1  0  0  0  0
M  END
> <VM2 Rank>
17

> <Conf_Id>
1033

> <Probability>
1.66

> <Sum Probability>
46.97

> <Delta G>
0.843

> <G>
76.309

> <E>
43.881

> <-TS>
32.428

> <U+W>
22.420

> <U>
71.628

> <W>
-49.208

> <W(PB)>
-51.516

> <W(SA)>
2.308

> <Valence>
2.314

> <Coulomb>
68.823

> <VdW>
0.491

> <VdW6>
-6.572

> <VdW12>
7.063

> <Bond>
0.188

> <Angle>
0.606

> <Pdih>
1.519

> <Idih>
0.000

> <Tether>
0.000

$$$$
VeraChem MOL file


 26 25  0  0  0  0  0  0  0  0999 V2000     
   19.5679   18.5758   26.4542 N   0  3  0  0  0  0  0  0  0  0  0  0
   20.0456   17.6616   26.4746 H   0  0  0  0  0  0  0  0  0  0  0  0
   18.7209   18.4465   27.0302 H   0  0  0  0  0  0  0  0  0  0  0  0
   19.1663   18.9272   25.0314 C   0  0  0  0  0  0  0  0  0  0  0  0
   18.7013   19.9161   25.0472 H   0  0  0  0  0  0  0  0  0  0  0  0
   18.4104   18.2020   24.7192 H   0  0  0  0  0  0  0  0  0  0  0  0
   20.3267   18.9095   24.0156 C   0  0  0  0  0  0  0  0  0  0  0  0
   21.0798   19.6558   24.2997 H   0  0  0  0  0  0  0  0  0  0  0  0
   20.8192   17.9284   24.0423 H   0  0  0  0  0  0  0  0  0  0  0  0
   19.8265   19.2009   22.5834 C   0  0  0  0  0  0  0  0  0  0  0  0
   19.3321   20.1820   22.5612 H   0  0  0  0  0  0  0  0  0  0  0  0
   19.0683   18.4553   22.3096 H   0  0  0  0  0  0  0  0  0  0  0  0
   20.9827   19.1804   21.5545 C   0  0  0  0  0  0  0  0  0  0  0  0
   21.7652   19.8799   21.8797 H   0  0  0  0  0  0  0  0  0  0  0  0
   21.4467   18.1845   21.5377 H   0  0  0  0  0  0  0  0  0  0  0  0
   20.5415   19.5688   20.1223 C   0  0  0  0  0  0  0  0  0  0  0  0
   21.4338   19.6327   19.4838 H   0  0  0  0  0  0  0  0  0  0  0  0
   20.0971   20.5739   20.1299 H   0  0  0  0  0  0  0  0  0  0  0  0
   19.5486   18.5661   19.4913 C   0  0  0  0  0  0  0  0  0  0  0  0
   18.5907   18.5561   20.0258 H   0  0  0  0  0  0  0  0  0  0  0  0
   19.9577   17.5475   19.4983 H   0  0  0  0  0  0  0  0  0  0  0  0
   19.3407   18.8366   18.4480 H   0  0  0  0  0  0  0  0  0  0  0  0
   20.4476   19.6613   27.0643 C   0  0  0  0  0  0  0  0  0  0  0  0
   19.9096   20.6116   27.0460 H   0  0  0  0  0  0  0  0  0  0  0  0
   20.6840   19.3914   28.0960 H   0  0  0  0  0  0  0  0  0  0  0  0
   21.3704   19.7464   26.4869 H   0  0  0  0  0  0  0  0  0  0  0  0
  1  2  1  0  0  0  0
  1  3  1  0  0  0  0
  1  4  1  0  0  0  0
  4  5  1  0  0  0  0
  4  6  1  0  0  0  0
  4  7  1  0  0  0  0
  7  8  1  0  0  0  0
  7  9  1  0  0  0  0
  7 10  1  0  0  0  0
 10 11  1  0  0  0  0
 10 12  1  0  0  0  0
 10 13  1  0  0  0  0
 13 14  1  0  0  0  0
 13 15  1  0  0  0  0
 13 16  1  0  0  0  0
 16 17  1  0  0  0  0
 16 18  1  0  0  0  0
 16 19  1  0  0  0  0
 19 20  1  0  0  0  0
 19 21  1  0  0  0  0
 19 22  1  0  0  0  0
  1 23  1  0  0  0  0
 23 24  1  0  0  0  0
 23 25  1  0  0  0  0
 23 26  1  0  0  0  0
M  END
> <VM2 Rank>
18

> <Conf_Id>
1786

> <Probability>
1.50

> <Sum Probability>
48.47

> <Delta G>
0.903

> <G>
76.369

> <E>
43.926

> <-TS>
32.443

> <U+W>
22.464

> <U>
71.429

> <W>
-48.965

> <W(PB)>
-51.238

> <W(SA)>
2.272

> <Valence>
2.501

> <Coulomb>
68.364

> <VdW>
0.564

> <VdW6>
-6.585

> <VdW12>
7.150

> <Bond>
0.197

> <Angle>
0.716

> <Pdih>
1.587

> <Idih>
0.000

> <Tether>
0.000

$$$$
VeraChem MOL file


 26 25  0  0  0  0  0  0  0  0999 V2000     
   19.4774   19.1684   26.4941 N   0  3  0  0  0  0  0  0  0  0  0  0
   19.0867   18.2204   26.6081 H   0  0  0  0  0  0  0  0  0  0  0  0
   18.8991   19.7695   27.1026 H   0  0  0  0  0  0  0  0  0  0  0  0
   19.3392   19.6235   25.0509 C   0  0  0  0  0  0  0  0  0  0  0  0
   19.7986   20.6113   24.9639 H   0  0  0  0  0  0  0  0  0  0  0  0
   18.2709   19.7272   24.8442 H   0  0  0  0  0  0  0  0  0  0  0  0
   19.9588   18.6637   24.0148 C   0  0  0  0  0  0  0  0  0  0  0  0
   21.0385   18.5741   24.1906 H   0  0  0  0  0  0  0  0  0  0  0  0
   19.5271   17.6623   24.1429 H   0  0  0  0  0  0  0  0  0  0  0  0
   19.7118   19.1566   22.5716 C   0  0  0  0  0  0  0  0  0  0  0  0
   20.1366   20.1629   22.4591 H   0  0  0  0  0  0  0  0  0  0  0  0
   18.6308   19.2448   22.3948 H   0  0  0  0  0  0  0  0  0  0  0  0
   20.3316   18.2014   21.5231 C   0  0  0  0  0  0  0  0  0  0  0  0
   21.4201   18.1511   21.6649 H   0  0  0  0  0  0  0  0  0  0  0  0
   19.9508   17.1849   21.6940 H   0  0  0  0  0  0  0  0  0  0  0  0
   20.0192   18.6032   20.0612 C   0  0  0  0  0  0  0  0  0  0  0  0
   18.9313   18.6328   19.9080 H   0  0  0  0  0  0  0  0  0  0  0  0
   20.4022   17.8208   19.3911 H   0  0  0  0  0  0  0  0  0  0  0  0
   20.6392   19.9582   19.6498 C   0  0  0  0  0  0  0  0  0  0  0  0
   20.1972   20.7911   20.2103 H   0  0  0  0  0  0  0  0  0  0  0  0
   20.4670   20.1512   18.5830 H   0  0  0  0  0  0  0  0  0  0  0  0
   21.7235   19.9647   19.8208 H   0  0  0  0  0  0  0  0  0  0  0  0
   20.9309   19.2149   26.9516 C   0  0  0  0  0  0  0  0  0  0  0  0
   20.9846   18.9175   28.0012 H   0  0  0  0  0  0  0  0  0  0  0  0
   21.5235   18.5273   26.3448 H   0  0  0  0  0  0  0  0  0  0  0  0
   21.3108   20.2325   26.8370 H   0  0  0  0  0  0  0  0  0  0  0  0
  1  2  1  0  0  0  0
  1  3  1  0  0  0  0
  1  4  1  0  0  0  0
  4  5  1  0  0  0  0
  4  6  1  0  0  0  0
  4  7  1  0  0  0  0
  7  8  1  0  0  0  0
  7  9  1  0  0  0  0
  7 10  1  0  0  0  0
 10 11  1  0  0  0  0
 10 12  1  0  0  0  0
 10 13  1  0  0  0  0
 13 14  1  0  0  0  0
 13 15  1  0  0  0  0
 13 16  1  0  0  0  0
 16 17  1  0  0  0  0
 16 18  1  0  0  0  0
 16 19  1  0  0  0  0
 19 20  1  0  0  0  0
 19 21  1  0  0  0  0
 19 22  1  0  0  0  0
  1 23  1  0  0  0  0
 23 24  1  0  0  0  0
 23 25  1  0  0  0  0
 23 26  1  0  0  0  0
M  END
> <VM2 Rank>
19

> <Conf_Id>
490

> <Probability>
1.44

> <Sum Probability>
49.91

> <Delta G>
0.928

> <G>
76.394

> <E>
43.951

> <-TS>
32.443

> <U+W>
22.489

> <U>
71.422

> <W>
-48.933

> <W(PB)>
-51.232

> <W(SA)>
2.299

> <Valence>
2.502

> <Coulomb>
68.359

> <VdW>
0.561

> <VdW6>
-6.587

> <VdW12>
7.149

> <Bond>
0.197

> <Angle>
0.717

> <Pdih>
1.587

> <Idih>
0.000

> <Tether>
0.000

$$$$
VeraChem MOL file


 26 25  0  0  0  0  0  0  0  0999 V2000     
   20.3676   19.2605   26.5256 N   0  3  0  0  0  0  0  0  0  0  0  0
   20.7667   19.9627   27.1687 H   0  0  0  0  0  0  0  0  0  0  0  0
   20.9347   18.4114   26.6736 H   0  0  0  0  0  0  0  0  0  0  0  0
   20.5105   19.7446   25.0923 C   0  0  0  0  0  0  0  0  0  0  0  0
   21.5469   20.0657   24.9601 H   0  0  0  0  0  0  0  0  0  0  0  0
   19.8663   20.6184   24.9663 H   0  0  0  0  0  0  0  0  0  0  0  0
   20.1740   18.6860   24.0224 C   0  0  0  0  0  0  0  0  0  0  0  0
   20.7910   17.7929   24.1877 H   0  0  0  0  0  0  0  0  0  0  0  0
   19.1256   18.3766   24.1229 H   0  0  0  0  0  0  0  0  0  0  0  0
   20.4156   19.2293   22.5965 C   0  0  0  0  0  0  0  0  0  0  0  0
   21.4655   19.5375   22.4951 H   0  0  0  0  0  0  0  0  0  0  0  0
   19.8033   20.1285   22.4473 H   0  0  0  0  0  0  0  0  0  0  0  0
   20.0786   18.1753   21.5142 C   0  0  0  0  0  0  0  0  0  0  0  0
   20.6459   17.2567   21.7187 H   0  0  0  0  0  0  0  0  0  0  0  0
   19.0161   17.9029   21.5798 H   0  0  0  0  0  0  0  0  0  0  0  0
   20.4040   18.6429   20.0748 C   0  0  0  0  0  0  0  0  0  0  0  0
   20.2365   17.8036   19.3853 H   0  0  0  0  0  0  0  0  0  0  0  0
   21.4709   18.8948   19.9979 H   0  0  0  0  0  0  0  0  0  0  0  0
   19.5510   19.8458   19.6112 C   0  0  0  0  0  0  0  0  0  0  0  0
   18.4789   19.6299   19.7060 H   0  0  0  0  0  0  0  0  0  0  0  0
   19.7545   20.0776   18.5578 H   0  0  0  0  0  0  0  0  0  0  0  0
   19.7735   20.7473   20.1953 H   0  0  0  0  0  0  0  0  0  0  0  0
   18.9068   19.0057   26.8799 C   0  0  0  0  0  0  0  0  0  0  0  0
   18.5112   18.2159   26.2382 H   0  0  0  0  0  0  0  0  0  0  0  0
   18.8417   18.6959   27.9253 H   0  0  0  0  0  0  0  0  0  0  0  0
   18.3360   19.9250   26.7316 H   0  0  0  0  0  0  0  0  0  0  0  0
  1  2  1  0  0  0  0
  1  3  1  0  0  0  0
  1  4  1  0  0  0  0
  4  5  1  0  0  0  0
  4  6  1  0  0  0  0
  4  7  1  0  0  0  0
  7  8  1  0  0  0  0
  7  9  1  0  0  0  0
  7 10  1  0  0  0  0
 10 11  1  0  0  0  0
 10 12  1  0  0  0  0
 10 13  1  0  0  0  0
 13 14  1  0  0  0  0
 13 15  1  0  0  0  0
 13 16  1  0  0  0  0
 16 17  1  0  0  0  0
 16 18  1  0  0  0  0
 16 19  1  0  0  0  0
 19 20  1  0  0  0  0
 19 21  1  0  0  0  0
 19 22  1  0  0  0  0
  1 23  1  0  0  0  0
 23 24  1  0  0  0  0
 23 25  1  0  0  0  0
 23 26  1  0  0  0  0
M  END
> <VM2 Rank>
20

> <Conf_Id>
730

> <Probability>
1.44

> <Sum Probability>
51.35

> <Delta G>
0.930

> <G>
76.396

> <E>
43.953

> <-TS>
32.443

> <U+W>
22.492

> <U>
71.422

> <W>
-48.930

> <W(PB)>
-51.223

> <W(SA)>
2.293

> <Valence>
2.501

> <Coulomb>
68.359

> <VdW>
0.562

> <VdW6>
-6.587

> <VdW12>
7.149

> <Bond>
0.197

> <Angle>
0.717

> <Pdih>
1.587

> <Idih>
0.000

> <Tether>
0.000

$$$$
VeraChem MOL file


 26 25  0  0  0  0  0  0  0  0999 V2000     
   20.4018   18.6611   26.4838 N   0  3  0  0  0  0  0  0  0  0  0  0
   21.2151   18.7015   27.1186 H   0  0  0  0  0  0  0  0  0  0  0  0
   20.1185   17.6691   26.4773 H   0  0  0  0  0  0  0  0  0  0  0  0
   20.8229   19.0964   25.0901 C   0  0  0  0  0  0  0  0  0  0  0  0
   21.7297   18.5412   24.8369 H   0  0  0  0  0  0  0  0  0  0  0  0
   21.0762   20.1587   25.1313 H   0  0  0  0  0  0  0  0  0  0  0  0
   19.7640   18.8518   23.9957 C   0  0  0  0  0  0  0  0  0  0  0  0
   19.4794   17.7913   23.9948 H   0  0  0  0  0  0  0  0  0  0  0  0
   18.8577   19.4285   24.2210 H   0  0  0  0  0  0  0  0  0  0  0  0
   20.2941   19.2486   22.5999 C   0  0  0  0  0  0  0  0  0  0  0  0
   21.2046   18.6737   22.3853 H   0  0  0  0  0  0  0  0  0  0  0  0
   20.5803   20.3096   22.6054 H   0  0  0  0  0  0  0  0  0  0  0  0
   19.2408   19.0022   21.4928 C   0  0  0  0  0  0  0  0  0  0  0  0
   18.9901   17.9333   21.4506 H   0  0  0  0  0  0  0  0  0  0  0  0
   18.3123   19.5268   21.7574 H   0  0  0  0  0  0  0  0  0  0  0  0
   19.6935   19.4822   20.0923 C   0  0  0  0  0  0  0  0  0  0  0  0
   19.9239   20.5563   20.1239 H   0  0  0  0  0  0  0  0  0  0  0  0
   18.8537   19.3690   19.3925 H   0  0  0  0  0  0  0  0  0  0  0  0
   20.9103   18.7055   19.5395 C   0  0  0  0  0  0  0  0  0  0  0  0
   21.8107   18.8853   20.1399 H   0  0  0  0  0  0  0  0  0  0  0  0
   21.1319   19.0200   18.5115 H   0  0  0  0  0  0  0  0  0  0  0  0
   20.7161   17.6251   19.5250 H   0  0  0  0  0  0  0  0  0  0  0  0
   19.2805   19.5422   27.0229 C   0  0  0  0  0  0  0  0  0  0  0  0
   19.6155   20.5816   27.0355 H   0  0  0  0  0  0  0  0  0  0  0  0
   18.4024   19.4432   26.3817 H   0  0  0  0  0  0  0  0  0  0  0  0
   19.0318   19.2228   28.0374 H   0  0  0  0  0  0  0  0  0  0  0  0
  1  2  1  0  0  0  0
  1  3  1  0  0  0  0
  1  4  1  0  0  0  0
  4  5  1  0  0  0  0
  4  6  1  0  0  0  0
  4  7  1  0  0  0  0
  7  8  1  0  0  0  0
  7  9  1  0  0  0  0
  7 10  1  0  0  0  0
 10 11  1  0  0  0  0
 10 12  1  0  0  0  0
 10 13  1  0  0  0  0
 13 14  1  0  0  0  0
 13 15  1  0  0  0  0
 13 16  1  0  0  0  0
 16 17  1  0  0  0  0
 16 18  1  0  0  0  0
 16 19  1  0  0  0  0
 19 20  1  0  0  0  0
 19 21  1  0  0  0  0
 19 22  1  0  0  0  0
  1 23  1  0  0  0  0
 23 24  1  0  0  0  0
 23 25  1  0  0  0  0
 23 26  1  0  0  0  0
M  END
> <VM2 Rank>
21

> <Conf_Id>
1118

> <Probability>
1.38

> <Sum Probability>
52.73

> <Delta G>
0.952

> <G>
76.418

> <E>
43.975

> <-TS>
32.443

> <U+W>
22.513

> <U>
71.429

> <W>
-48.917

> <W(PB)>
-51.189

> <W(SA)>
2.272

> <Valence>
2.501

> <Coulomb>
68.364

> <VdW>
0.564

> <VdW6>
-6.585

> <VdW12>
7.150

> <Bond>
0.197

> <Angle>
0.716

> <Pdih>
1.587

> <Idih>
0.000

> <Tether>
0.000

$$$$
VeraChem MOL file


 26 25  0  0  0  0  0  0  0  0999 V2000     
   20.0416   18.7973   26.4300 N   0  3  0  0  0  0  0  0  0  0  0  0
   20.4504   17.8501   26.4154 H   0  0  0  0  0  0  0  0  0  0  0  0
   19.4595   18.8227   27.2823 H   0  0  0  0  0  0  0  0  0  0  0  0
   19.1629   19.0092   25.2083 C   0  0  0  0  0  0  0  0  0  0  0  0
   18.7829   20.0334   25.2405 H   0  0  0  0  0  0  0  0  0  0  0  0
   18.3122   18.3290   25.2988 H   0  0  0  0  0  0  0  0  0  0  0  0
   19.8675   18.7534   23.8604 C   0  0  0  0  0  0  0  0  0  0  0  0
   20.7052   19.4524   23.7504 H   0  0  0  0  0  0  0  0  0  0  0  0
   20.2884   17.7394   23.8569 H   0  0  0  0  0  0  0  0  0  0  0  0
   18.8866   18.9142   22.6750 C   0  0  0  0  0  0  0  0  0  0  0  0
   18.5017   19.9432   22.6498 H   0  0  0  0  0  0  0  0  0  0  0  0
   18.0163   18.2641   22.8416 H   0  0  0  0  0  0  0  0  0  0  0  0
   19.5088   18.5588   21.3020 C   0  0  0  0  0  0  0  0  0  0  0  0
   19.8781   17.5241   21.3214 H   0  0  0  0  0  0  0  0  0  0  0  0
   18.7151   18.5876   20.5426 H   0  0  0  0  0  0  0  0  0  0  0  0
   20.6496   19.5119   20.8724 C   0  0  0  0  0  0  0  0  0  0  0  0
   21.4897   19.4398   21.5758 H   0  0  0  0  0  0  0  0  0  0  0  0
   20.2960   20.5520   20.9036 H   0  0  0  0  0  0  0  0  0  0  0  0
   21.1581   19.1872   19.4515 C   0  0  0  0  0  0  0  0  0  0  0  0
   20.3541   19.2889   18.7110 H   0  0  0  0  0  0  0  0  0  0  0  0
   21.5463   18.1618   19.3960 H   0  0  0  0  0  0  0  0  0  0  0  0
   21.9682   19.8699   19.1642 H   0  0  0  0  0  0  0  0  0  0  0  0
   21.1330   19.8581   26.5173 C   0  0  0  0  0  0  0  0  0  0  0  0
   20.6705   20.8470   26.5493 H   0  0  0  0  0  0  0  0  0  0  0  0
   21.7176   19.6951   27.4254 H   0  0  0  0  0  0  0  0  0  0  0  0
   21.7835   19.7810   25.6438 H   0  0  0  0  0  0  0  0  0  0  0  0
  1  2  1  0  0  0  0
  1  3  1  0  0  0  0
  1  4  1  0  0  0  0
  4  5  1  0  0  0  0
  4  6  1  0  0  0  0
  4  7  1  0  0  0  0
  7  8  1  0  0  0  0
  7  9  1  0  0  0  0
  7 10  1  0  0  0  0
 10 11  1  0  0  0  0
 10 12  1  0  0  0  0
 10 13  1  0  0  0  0
 13 14  1  0  0  0  0
 13 15  1  0  0  0  0
 13 16  1  0  0  0  0
 16 17  1  0  0  0  0
 16 18  1  0  0  0  0
 16 19  1  0  0  0  0
 19 20  1  0  0  0  0
 19 21  1  0  0  0  0
 19 22  1  0  0  0  0
  1 23  1  0  0  0  0
 23 24  1  0  0  0  0
 23 25  1  0  0  0  0
 23 26  1  0  0  0  0
M  END
> <VM2 Rank>
22

> <Conf_Id>
1597

> <Probability>
1.32

> <Sum Probability>
54.05

> <Delta G>
0.981

> <G>
76.447

> <E>
44.015

> <-TS>
32.432

> <U+W>
22.553

> <U>
71.707

> <W>
-49.154

> <W(PB)>
-51.437

> <W(SA)>
2.283

> <Valence>
2.540

> <Coulomb>
68.632

> <VdW>
0.536

> <VdW6>
-6.649

> <VdW12>
7.184

> <Bond>
0.201

> <Angle>
0.741

> <Pdih>
1.598

> <Idih>
0.000

> <Tether>
0.000

$$$$
VeraChem MOL file


 26 25  0  0  0  0  0  0  0  0999 V2000     
   19.3807   18.7696   26.3197 N   0  3  0  0  0  0  0  0  0  0  0  0
   18.8418   17.9313   26.0530 H   0  0  0  0  0  0  0  0  0  0  0  0
   18.8518   19.1885   27.1012 H   0  0  0  0  0  0  0  0  0  0  0  0
   19.4357   19.7502   25.1601 C   0  0  0  0  0  0  0  0  0  0  0  0
   20.0446   20.6033   25.4694 H   0  0  0  0  0  0  0  0  0  0  0  0
   18.4167   20.1058   24.9872 H   0  0  0  0  0  0  0  0  0  0  0  0
   19.9891   19.1593   23.8473 C   0  0  0  0  0  0  0  0  0  0  0  0
   21.0245   18.8276   23.9974 H   0  0  0  0  0  0  0  0  0  0  0  0
   19.4004   18.2731   23.5799 H   0  0  0  0  0  0  0  0  0  0  0  0
   19.9412   20.1970   22.7009 C   0  0  0  0  0  0  0  0  0  0  0  0
   20.4652   21.1078   23.0228 H   0  0  0  0  0  0  0  0  0  0  0  0
   18.8997   20.4919   22.5111 H   0  0  0  0  0  0  0  0  0  0  0  0
   20.5875   19.6980   21.3849 C   0  0  0  0  0  0  0  0  0  0  0  0
   20.6120   20.5330   20.6710 H   0  0  0  0  0  0  0  0  0  0  0  0
   21.6346   19.4213   21.5703 H   0  0  0  0  0  0  0  0  0  0  0  0
   19.8397   18.5071   20.7394 C   0  0  0  0  0  0  0  0  0  0  0  0
   18.7803   18.7648   20.6012 H   0  0  0  0  0  0  0  0  0  0  0  0
   19.8710   17.6338   21.4042 H   0  0  0  0  0  0  0  0  0  0  0  0
   20.4536   18.1205   19.3767 C   0  0  0  0  0  0  0  0  0  0  0  0
   21.5061   17.8286   19.4867 H   0  0  0  0  0  0  0  0  0  0  0  0
   20.4032   18.9578   18.6685 H   0  0  0  0  0  0  0  0  0  0  0  0
   19.9136   17.2732   18.9346 H   0  0  0  0  0  0  0  0  0  0  0  0
   20.7806   18.3883   26.7880 C   0  0  0  0  0  0  0  0  0  0  0  0
   21.3195   19.2920   27.0808 H   0  0  0  0  0  0  0  0  0  0  0  0
   20.6996   17.7140   27.6435 H   0  0  0  0  0  0  0  0  0  0  0  0
   21.3102   17.8874   25.9752 H   0  0  0  0  0  0  0  0  0  0  0  0
  1  2  1  0  0  0  0
  1  3  1  0  0  0  0
  1  4  1  0  0  0  0
  4  5  1  0  0  0  0
  4  6  1  0  0  0  0
  4  7  1  0  0  0  0
  7  8  1  0  0  0  0
  7  9  1  0  0  0  0
  7 10  1  0  0  0  0
 10 11  1  0  0  0  0
 10 12  1  0  0  0  0
 10 13  1  0  0  0  0
 13 14  1  0  0  0  0
 13 15  1  0  0  0  0
 13 16  1  0  0  0  0
 16 17  1  0  0  0  0
 16 18  1  0  0  0  0
 16 19  1  0  0  0  0
 19 20  1  0  0  0  0
 19 21  1  0  0  0  0
 19 22  1  0  0  0  0
  1 23  1  0  0  0  0
 23 24  1  0  0  0  0
 23 25  1  0  0  0  0
 23 26  1  0  0  0  0
M  END
> <VM2 Rank>
23

> <Conf_Id>
1769

> <Probability>
1.31

> <Sum Probability>
55.36

> <Delta G>
0.986

> <G>
76.452

> <E>
44.019

> <-TS>
32.433

> <U+W>
22.558

> <U>
71.722

> <W>
-49.165

> <W(PB)>
-51.479

> <W(SA)>
2.314

> <Valence>
2.540

> <Coulomb>
68.643

> <VdW>
0.540

> <VdW6>
-6.633

> <VdW12>
7.173

> <Bond>
0.200

> <Angle>
0.745

> <Pdih>
1.595

> <Idih>
0.000

> <Tether>
0.000

$$$$
VeraChem MOL file


 26 25  0  0  0  0  0  0  0  0999 V2000     
   20.5533   18.8857   26.3613 N   0  3  0  0  0  0  0  0  0  0  0  0
   20.9335   19.3946   27.1752 H   0  0  0  0  0  0  0  0  0  0  0  0
   21.2635   18.1711   26.1390 H   0  0  0  0  0  0  0  0  0  0  0  0
   20.3889   19.8446   25.1939 C   0  0  0  0  0  0  0  0  0  0  0  0
   21.3281   20.3942   25.0907 H   0  0  0  0  0  0  0  0  0  0  0  0
   19.6045   20.5598   25.4538 H   0  0  0  0  0  0  0  0  0  0  0  0
   20.0556   19.1660   23.8497 C   0  0  0  0  0  0  0  0  0  0  0  0
   20.8237   18.4140   23.6305 H   0  0  0  0  0  0  0  0  0  0  0  0
   19.0972   18.6371   23.9289 H   0  0  0  0  0  0  0  0  0  0  0  0
   19.9800   20.2009   22.7023 C   0  0  0  0  0  0  0  0  0  0  0  0
   20.9543   20.6952   22.5841 H   0  0  0  0  0  0  0  0  0  0  0  0
   19.2667   20.9894   22.9802 H   0  0  0  0  0  0  0  0  0  0  0  0
   19.5379   19.5943   21.3476 C   0  0  0  0  0  0  0  0  0  0  0  0
   18.5548   19.1169   21.4609 H   0  0  0  0  0  0  0  0  0  0  0  0
   19.4008   20.4132   20.6279 H   0  0  0  0  0  0  0  0  0  0  0  0
   20.5477   18.5771   20.7646 C   0  0  0  0  0  0  0  0  0  0  0  0
   20.6410   17.7099   21.4317 H   0  0  0  0  0  0  0  0  0  0  0  0
   21.5433   19.0379   20.6995 H   0  0  0  0  0  0  0  0  0  0  0  0
   20.1186   18.0873   19.3649 C   0  0  0  0  0  0  0  0  0  0  0  0
   20.0540   18.9231   18.6561 H   0  0  0  0  0  0  0  0  0  0  0  0
   19.1384   17.5944   19.4026 H   0  0  0  0  0  0  0  0  0  0  0  0
   20.8436   17.3650   18.9678 H   0  0  0  0  0  0  0  0  0  0  0  0
   19.2259   18.2342   26.7327 C   0  0  0  0  0  0  0  0  0  0  0  0
   18.8632   17.6448   25.8882 H   0  0  0  0  0  0  0  0  0  0  0  0
   19.3770   17.5830   27.5965 H   0  0  0  0  0  0  0  0  0  0  0  0
   18.5011   19.0127   26.9804 H   0  0  0  0  0  0  0  0  0  0  0  0
  1  2  1  0  0  0  0
  1  3  1  0  0  0  0
  1  4  1  0  0  0  0
  4  5  1  0  0  0  0
  4  6  1  0  0  0  0
  4  7  1  0  0  0  0
  7  8  1  0  0  0  0
  7  9  1  0  0  0  0
  7 10  1  0  0  0  0
 10 11  1  0  0  0  0
 10 12  1  0  0  0  0
 10 13  1  0  0  0  0
 13 14  1  0  0  0  0
 13 15  1  0  0  0  0
 13 16  1  0  0  0  0
 16 17  1  0  0  0  0
 16 18  1  0  0  0  0
 16 19  1  0  0  0  0
 19 20  1  0  0  0  0
 19 21  1  0  0  0  0
 19 22  1  0  0  0  0
  1 23  1  0  0  0  0
 23 24  1  0  0  0  0
 23 25  1  0  0  0  0
 23 26  1  0  0  0  0
M  END
> <VM2 Rank>
24

> <Conf_Id>
1849

> <Probability>
1.28

> <Sum Probability>
56.64

> <Delta G>
1.000

> <G>
76.466

> <E>
44.033

> <-TS>
32.433

> <U+W>
22.571

> <U>
71.722

> <W>
-49.151

> <W(PB)>
-51.448

> <W(SA)>
2.296

> <Valence>
2.540

> <Coulomb>
68.643

> <VdW>
0.540

> <VdW6>
-6.633

> <VdW12>
7.173

> <Bond>
0.200

> <Angle>
0.745

> <Pdih>
1.595

> <Idih>
0.000

> <Tether>
0.000

$$$$
VeraChem MOL file


 26 25  0  0  0  0  0  0  0  0999 V2000     
   19.8965   18.7824   26.4249 N   0  3  0  0  0  0  0  0  0  0  0  0
   20.4003   18.9192   27.3157 H   0  0  0  0  0  0  0  0  0  0  0  0
   19.6903   17.7721   26.3885 H   0  0  0  0  0  0  0  0  0  0  0  0
   20.7971   19.1769   25.2662 C   0  0  0  0  0  0  0  0  0  0  0  0
   21.7597   18.6826   25.4208 H   0  0  0  0  0  0  0  0  0  0  0  0
   20.9584   20.2566   25.3176 H   0  0  0  0  0  0  0  0  0  0  0  0
   20.2551   18.7933   23.8742 C   0  0  0  0  0  0  0  0  0  0  0  0
   20.0497   17.7150   23.8484 H   0  0  0  0  0  0  0  0  0  0  0  0
   19.3030   19.3088   23.7007 H   0  0  0  0  0  0  0  0  0  0  0  0
   21.2636   19.1579   22.7592 C   0  0  0  0  0  0  0  0  0  0  0  0
   22.2337   18.6965   22.9910 H   0  0  0  0  0  0  0  0  0  0  0  0
   21.4329   20.2437   22.7535 H   0  0  0  0  0  0  0  0  0  0  0  0
   20.8241   18.6936   21.3485 C   0  0  0  0  0  0  0  0  0  0  0  0
   21.6467   18.8881   20.6464 H   0  0  0  0  0  0  0  0  0  0  0  0
   20.6717   17.6054   21.3496 H   0  0  0  0  0  0  0  0  0  0  0  0
   19.5468   19.3988   20.8333 C   0  0  0  0  0  0  0  0  0  0  0  0
   19.6793   20.4887   20.8815 H   0  0  0  0  0  0  0  0  0  0  0  0
   18.6915   19.1531   21.4766 H   0  0  0  0  0  0  0  0  0  0  0  0
   19.2154   18.9879   19.3827 C   0  0  0  0  0  0  0  0  0  0  0  0
   19.0478   17.9056   19.3076 H   0  0  0  0  0  0  0  0  0  0  0  0
   20.0320   19.2555   18.6995 H   0  0  0  0  0  0  0  0  0  0  0  0
   18.3060   19.4944   19.0343 H   0  0  0  0  0  0  0  0  0  0  0  0
   18.6092   19.5992   26.4280 C   0  0  0  0  0  0  0  0  0  0  0  0
   18.0506   19.3981   25.5118 H   0  0  0  0  0  0  0  0  0  0  0  0
   18.0078   19.3145   27.2943 H   0  0  0  0  0  0  0  0  0  0  0  0
   18.8583   20.6611   26.4852 H   0  0  0  0  0  0  0  0  0  0  0  0
  1  2  1  0  0  0  0
  1  3  1  0  0  0  0
  1  4  1  0  0  0  0
  4  5  1  0  0  0  0
  4  6  1  0  0  0  0
  4  7  1  0  0  0  0
  7  8  1  0  0  0  0
  7  9  1  0  0  0  0
  7 10  1  0  0  0  0
 10 11  1  0  0  0  0
 10 12  1  0  0  0  0
 10 13  1  0  0  0  0
 13 14  1  0  0  0  0
 13 15  1  0  0  0  0
 13 16  1  0  0  0  0
 16 17  1  0  0  0  0
 16 18  1  0  0  0  0
 16 19  1  0  0  0  0
 19 20  1  0  0  0  0
 19 21  1  0  0  0  0
 19 22  1  0  0  0  0
  1 23  1  0  0  0  0
 23 24  1  0  0  0  0
 23 25  1  0  0  0  0
 23 26  1  0  0  0  0
M  END
> <VM2 Rank>
25

> <Conf_Id>
1336

> <Probability>
1.23

> <Sum Probability>
57.86

> <Delta G>
1.024

> <G>
76.490

> <E>
44.058

> <-TS>
32.432

> <U+W>
22.596

> <U>
71.707

> <W>
-49.111

> <W(PB)>
-51.411

> <W(SA)>
2.301

> <Valence>
2.540

> <Coulomb>
68.632

> <VdW>
0.535

> <VdW6>
-6.648

> <VdW12>
7.183

> <Bond>
0.201

> <Angle>
0.741

> <Pdih>
1.598

> <Idih>
0.000

> <Tether>
0.000

$$$$
VeraChem MOL file


 26 25  0  0  0  0  0  0  0  0999 V2000     
   19.2941   18.8526   25.6646 N   0  3  0  0  0  0  0  0  0  0  0  0
   19.2355   17.8226   25.6839 H   0  0  0  0  0  0  0  0  0  0  0  0
   18.6313   19.1538   24.9345 H   0  0  0  0  0  0  0  0  0  0  0  0
   20.7010   19.2883   25.3029 C   0  0  0  0  0  0  0  0  0  0  0  0
   21.3661   18.9495   26.1014 H   0  0  0  0  0  0  0  0  0  0  0  0
   20.7213   20.3808   25.2826 H   0  0  0  0  0  0  0  0  0  0  0  0
   21.2005   18.7352   23.9535 C   0  0  0  0  0  0  0  0  0  0  0  0
   22.2549   19.0172   23.8328 H   0  0  0  0  0  0  0  0  0  0  0  0
   21.1706   17.6376   23.9731 H   0  0  0  0  0  0  0  0  0  0  0  0
   20.3862   19.2672   22.7500 C   0  0  0  0  0  0  0  0  0  0  0  0
   20.4004   20.3660   22.7561 H   0  0  0  0  0  0  0  0  0  0  0  0
   19.3379   18.9600   22.8520 H   0  0  0  0  0  0  0  0  0  0  0  0
   20.9497   18.7511   21.4040 C   0  0  0  0  0  0  0  0  0  0  0  0
   22.0165   19.0062   21.3395 H   0  0  0  0  0  0  0  0  0  0  0  0
   20.8925   17.6542   21.3743 H   0  0  0  0  0  0  0  0  0  0  0  0
   20.2293   19.3396   20.1666 C   0  0  0  0  0  0  0  0  0  0  0  0
   20.7563   19.0076   19.2612 H   0  0  0  0  0  0  0  0  0  0  0  0
   20.3032   20.4361   20.1798 H   0  0  0  0  0  0  0  0  0  0  0  0
   18.7453   18.9199   20.0606 C   0  0  0  0  0  0  0  0  0  0  0  0
   18.3096   19.2836   19.1210 H   0  0  0  0  0  0  0  0  0  0  0  0
   18.1485   19.3350   20.8821 H   0  0  0  0  0  0  0  0  0  0  0  0
   18.6416   17.8272   20.0771 H   0  0  0  0  0  0  0  0  0  0  0  0
   18.9019   19.4361   27.0148 C   0  0  0  0  0  0  0  0  0  0  0  0
   18.9410   20.5262   26.9600 H   0  0  0  0  0  0  0  0  0  0  0  0
   17.8876   19.1153   27.2628 H   0  0  0  0  0  0  0  0  0  0  0  0
   19.5984   19.0786   27.7764 H   0  0  0  0  0  0  0  0  0  0  0  0
  1  2  1  0  0  0  0
  1  3  1  0  0  0  0
  1  4  1  0  0  0  0
  4  5  1  0  0  0  0
  4  6  1  0  0  0  0
  4  7  1  0  0  0  0
  7  8  1  0  0  0  0
  7  9  1  0  0  0  0
  7 10  1  0  0  0  0
 10 11  1  0  0  0  0
 10 12  1  0  0  0  0
 10 13  1  0  0  0  0
 13 14  1  0  0  0  0
 13 15  1  0  0  0  0
 13 16  1  0  0  0  0
 16 17  1  0  0  0  0
 16 18  1  0  0  0  0
 16 19  1  0  0  0  0
 19 20  1  0  0  0  0
 19 21  1  0  0  0  0
 19 22  1  0  0  0  0
  1 23  1  0  0  0  0
 23 24  1  0  0  0  0
 23 25  1  0  0  0  0
 23 26  1  0  0  0  0
M  END
> <VM2 Rank>
26

> <Conf_Id>
1239

> <Probability>
1.13

> <Sum Probability>
58.99

> <Delta G>
1.073

> <G>
76.539

> <E>
44.179

> <-TS>
32.360

> <U+W>
22.717

> <U>
71.970

> <W>
-49.253

> <W(PB)>
-51.560

> <W(SA)>
2.307

> <Valence>
2.341

> <Coulomb>
69.301

> <VdW>
0.327

> <VdW6>
-6.486

> <VdW12>
6.813

> <Bond>
0.179

> <Angle>
0.655

> <Pdih>
1.507

> <Idih>
0.000

> <Tether>
0.000

$$$$
VeraChem MOL file


 26 25  0  0  0  0  0  0  0  0999 V2000     
   20.3570   19.5885   25.8079 N   0  3  0  0  0  0  0  0  0  0  0  0
   20.5056   20.3504   25.1292 H   0  0  0  0  0  0  0  0  0  0  0  0
   21.2926   19.1924   25.9882 H   0  0  0  0  0  0  0  0  0  0  0  0
   19.4483   18.5303   25.2126 C   0  0  0  0  0  0  0  0  0  0  0  0
   18.4734   18.9882   25.0274 H   0  0  0  0  0  0  0  0  0  0  0  0
   19.3200   17.7462   25.9631 H   0  0  0  0  0  0  0  0  0  0  0  0
   19.9846   17.9067   23.9089 C   0  0  0  0  0  0  0  0  0  0  0  0
   20.9668   17.4528   24.0968 H   0  0  0  0  0  0  0  0  0  0  0  0
   19.3134   17.0891   23.6139 H   0  0  0  0  0  0  0  0  0  0  0  0
   20.0837   18.9301   22.7527 C   0  0  0  0  0  0  0  0  0  0  0  0
   20.7850   19.7312   23.0210 H   0  0  0  0  0  0  0  0  0  0  0  0
   19.1021   19.3996   22.6048 H   0  0  0  0  0  0  0  0  0  0  0  0
   20.5519   18.2635   21.4366 C   0  0  0  0  0  0  0  0  0  0  0  0
   21.4976   17.7345   21.6189 H   0  0  0  0  0  0  0  0  0  0  0  0
   19.8251   17.4992   21.1286 H   0  0  0  0  0  0  0  0  0  0  0  0
   20.7666   19.2679   20.2783 C   0  0  0  0  0  0  0  0  0  0  0  0
   21.1947   18.7304   19.4205 H   0  0  0  0  0  0  0  0  0  0  0  0
   21.5120   20.0203   20.5718 H   0  0  0  0  0  0  0  0  0  0  0  0
   19.4671   19.9724   19.8262 C   0  0  0  0  0  0  0  0  0  0  0  0
   18.6949   19.2408   19.5550 H   0  0  0  0  0  0  0  0  0  0  0  0
   19.6571   20.6010   18.9465 H   0  0  0  0  0  0  0  0  0  0  0  0
   19.0648   20.6215   20.6137 H   0  0  0  0  0  0  0  0  0  0  0  0
   19.7487   20.1305   27.0939 C   0  0  0  0  0  0  0  0  0  0  0  0
   19.6302   19.3124   27.8076 H   0  0  0  0  0  0  0  0  0  0  0  0
   20.4122   20.8911   27.5114 H   0  0  0  0  0  0  0  0  0  0  0  0
   18.7747   20.5722   26.8721 H   0  0  0  0  0  0  0  0  0  0  0  0
  1  2  1  0  0  0  0
  1  3  1  0  0  0  0
  1  4  1  0  0  0  0
  4  5  1  0  0  0  0
  4  6  1  0  0  0  0
  4  7  1  0  0  0  0
  7  8  1  0  0  0  0
  7  9  1  0  0  0  0
  7 10  1  0  0  0  0
 10 11  1  0  0  0  0
 10 12  1  0  0  0  0
 10 13  1  0  0  0  0
 13 14  1  0  0  0  0
 13 15  1  0  0  0  0
 13 16  1  0  0  0  0
 16 17  1  0  0  0  0
 16 18  1  0  0  0  0
 16 19  1  0  0  0  0
 19 20  1  0  0  0  0
 19 21  1  0  0  0  0
 19 22  1  0  0  0  0
  1 23  1  0  0  0  0
 23 24  1  0  0  0  0
 23 25  1  0  0  0  0
 23 26  1  0  0  0  0
M  END
> <VM2 Rank>
27

> <Conf_Id>
1619

> <Probability>
1.12

> <Sum Probability>
60.11

> <Delta G>
1.079

> <G>
76.545

> <E>
44.179

> <-TS>
32.367

> <U+W>
22.717

> <U>
71.833

> <W>
-49.116

> <W(PB)>
-51.437

> <W(SA)>
2.321

> <Valence>
2.344

> <Coulomb>
69.159

> <VdW>
0.330

> <VdW6>
-6.475

> <VdW12>
6.805

> <Bond>
0.178

> <Angle>
0.658

> <Pdih>
1.508

> <Idih>
0.000

> <Tether>
0.000

$$$$
VeraChem MOL file


 26 25  0  0  0  0  0  0  0  0999 V2000     
   20.6688   18.9934   25.7132 N   0  3  0  0  0  0  0  0  0  0  0  0
   21.3064   19.4278   25.0292 H   0  0  0  0  0  0  0  0  0  0  0  0
   20.9332   17.9965   25.7440 H   0  0  0  0  0  0  0  0  0  0  0  0
   19.2316   19.1378   25.2508 C   0  0  0  0  0  0  0  0  0  0  0  0
   18.9920   20.2037   25.2215 H   0  0  0  0  0  0  0  0  0  0  0  0
   18.5947   18.6656   26.0032 H   0  0  0  0  0  0  0  0  0  0  0  0
   18.9503   18.5047   23.8738 C   0  0  0  0  0  0  0  0  0  0  0  0
   19.2004   17.4358   23.9033 H   0  0  0  0  0  0  0  0  0  0  0  0
   17.8717   18.5682   23.6776 H   0  0  0  0  0  0  0  0  0  0  0  0
   19.7221   19.1993   22.7265 C   0  0  0  0  0  0  0  0  0  0  0  0
   20.8011   19.1101   22.9038 H   0  0  0  0  0  0  0  0  0  0  0  0
   19.4852   20.2723   22.7237 H   0  0  0  0  0  0  0  0  0  0  0  0
   19.3705   18.5894   21.3481 C   0  0  0  0  0  0  0  0  0  0  0  0
   19.6506   17.5270   21.3303 H   0  0  0  0  0  0  0  0  0  0  0  0
   18.2813   18.6237   21.2071 H   0  0  0  0  0  0  0  0  0  0  0  0
   20.0418   19.3205   20.1600 C   0  0  0  0  0  0  0  0  0  0  0  0
   19.7468   20.3792   20.1602 H   0  0  0  0  0  0  0  0  0  0  0  0
   19.6575   18.8952   19.2223 H   0  0  0  0  0  0  0  0  0  0  0  0
   21.5837   19.2104   20.1612 C   0  0  0  0  0  0  0  0  0  0  0  0
   21.9049   18.1612   20.1926 H   0  0  0  0  0  0  0  0  0  0  0  0
   22.0251   19.7317   21.0195 H   0  0  0  0  0  0  0  0  0  0  0  0
   22.0014   19.6617   19.2519 H   0  0  0  0  0  0  0  0  0  0  0  0
   20.8393   19.6345   27.0834 C   0  0  0  0  0  0  0  0  0  0  0  0
   20.1781   19.1379   27.7969 H   0  0  0  0  0  0  0  0  0  0  0  0
   21.8776   19.5239   27.4041 H   0  0  0  0  0  0  0  0  0  0  0  0
   20.5842   20.6945   27.0182 H   0  0  0  0  0  0  0  0  0  0  0  0
  1  2  1  0  0  0  0
  1  3  1  0  0  0  0
  1  4  1  0  0  0  0
  4  5  1  0  0  0  0
  4  6  1  0  0  0  0
  4  7  1  0  0  0  0
  7  8  1  0  0  0  0
  7  9  1  0  0  0  0
  7 10  1  0  0  0  0
 10 11  1  0  0  0  0
 10 12  1  0  0  0  0
 10 13  1  0  0  0  0
 13 14  1  0  0  0  0
 13 15  1  0  0  0  0
 13 16  1  0  0  0  0
 16 17  1  0  0  0  0
 16 18  1  0  0  0  0
 16 19  1  0  0  0  0
 19 20  1  0  0  0  0
 19 21  1  0  0  0  0
 19 22  1  0  0  0  0
  1 23  1  0  0  0  0
 23 24  1  0  0  0  0
 23 25  1  0  0  0  0
 23 26  1  0  0  0  0
M  END
> <VM2 Rank>
28

> <Conf_Id>
1293

> <Probability>
1.11

> <Sum Probability>
61.22

> <Delta G>
1.085

> <G>
76.551

> <E>
44.191

> <-TS>
32.360

> <U+W>
22.729

> <U>
71.970

> <W>
-49.241

> <W(PB)>
-51.540

> <W(SA)>
2.299

> <Valence>
2.341

> <Coulomb>
69.301

> <VdW>
0.328

> <VdW6>
-6.486

> <VdW12>
6.814

> <Bond>
0.179

> <Angle>
0.655

> <Pdih>
1.507

> <Idih>
0.000

> <Tether>
0.000

$$$$
VeraChem MOL file


 26 25  0  0  0  0  0  0  0  0999 V2000     
   19.8926   18.9397   26.2620 N   0  3  0  0  0  0  0  0  0  0  0  0
   20.6029   18.2957   26.6436 H   0  0  0  0  0  0  0  0  0  0  0  0
   18.9889   18.4583   26.3896 H   0  0  0  0  0  0  0  0  0  0  0  0
   20.1494   19.1883   24.7894 C   0  0  0  0  0  0  0  0  0  0  0  0
   21.1169   19.6881   24.6972 H   0  0  0  0  0  0  0  0  0  0  0  0
   19.3744   19.8676   24.4265 H   0  0  0  0  0  0  0  0  0  0  0  0
   20.1496   17.8993   23.9452 C   0  0  0  0  0  0  0  0  0  0  0  0
   20.9034   17.2080   24.3450 H   0  0  0  0  0  0  0  0  0  0  0  0
   19.1787   17.3952   24.0406 H   0  0  0  0  0  0  0  0  0  0  0  0
   20.4534   18.1652   22.4519 C   0  0  0  0  0  0  0  0  0  0  0  0
   20.5190   17.2016   21.9281 H   0  0  0  0  0  0  0  0  0  0  0  0
   21.4419   18.6355   22.3651 H   0  0  0  0  0  0  0  0  0  0  0  0
   19.3815   19.0482   21.7638 C   0  0  0  0  0  0  0  0  0  0  0  0
   18.3882   18.6160   21.9478 H   0  0  0  0  0  0  0  0  0  0  0  0
   19.3716   20.0502   22.2133 H   0  0  0  0  0  0  0  0  0  0  0  0
   19.5841   19.1798   20.2348 C   0  0  0  0  0  0  0  0  0  0  0  0
   18.7325   19.7312   19.8121 H   0  0  0  0  0  0  0  0  0  0  0  0
   19.5660   18.1841   19.7700 H   0  0  0  0  0  0  0  0  0  0  0  0
   20.8911   19.9096   19.8496 C   0  0  0  0  0  0  0  0  0  0  0  0
   20.9438   20.0554   18.7629 H   0  0  0  0  0  0  0  0  0  0  0  0
   21.7768   19.3353   20.1481 H   0  0  0  0  0  0  0  0  0  0  0  0
   20.9460   20.8983   20.3235 H   0  0  0  0  0  0  0  0  0  0  0  0
   19.9063   20.2598   27.0202 C   0  0  0  0  0  0  0  0  0  0  0  0
   19.1254   20.9112   26.6215 H   0  0  0  0  0  0  0  0  0  0  0  0
   19.7204   20.0666   28.0791 H   0  0  0  0  0  0  0  0  0  0  0  0
   20.8824   20.7343   26.8977 H   0  0  0  0  0  0  0  0  0  0  0  0
  1  2  1  0  0  0  0
  1  3  1  0  0  0  0
  1  4  1  0  0  0  0
  4  5  1  0  0  0  0
  4  6  1  0  0  0  0
  4  7  1  0  0  0  0
  7  8  1  0  0  0  0
  7  9  1  0  0  0  0
  7 10  1  0  0  0  0
 10 11  1  0  0  0  0
 10 12  1  0  0  0  0
 10 13  1  0  0  0  0
 13 14  1  0  0  0  0
 13 15  1  0  0  0  0
 13 16  1  0  0  0  0
 16 17  1  0  0  0  0
 16 18  1  0  0  0  0
 16 19  1  0  0  0  0
 19 20  1  0  0  0  0
 19 21  1  0  0  0  0
 19 22  1  0  0  0  0
  1 23  1  0  0  0  0
 23 24  1  0  0  0  0
 23 25  1  0  0  0  0
 23 26  1  0  0  0  0
M  END
> <VM2 Rank>
29

> <Conf_Id>
1234

> <Probability>
1.10

> <Sum Probability>
62.32

> <Delta G>
1.088

> <G>
76.554

> <E>
44.176

> <-TS>
32.379

> <U+W>
22.714

> <U>
71.734

> <W>
-49.020

> <W(PB)>
-51.334

> <W(SA)>
2.314

> <Valence>
2.508

> <Coulomb>
68.926

> <VdW>
0.300

> <VdW6>
-6.530

> <VdW12>
6.830

> <Bond>
0.185

> <Angle>
0.693

> <Pdih>
1.630

> <Idih>
0.000

> <Tether>
0.000

$$$$
VeraChem MOL file


 26 25  0  0  0  0  0  0  0  0999 V2000     
   19.4705   19.4965   25.7765 N   0  3  0  0  0  0  0  0  0  0  0  0
   18.6259   18.9155   25.8938 H   0  0  0  0  0  0  0  0  0  0  0  0
   19.2166   20.2166   25.0835 H   0  0  0  0  0  0  0  0  0  0  0  0
   20.6164   18.6516   25.2539 C   0  0  0  0  0  0  0  0  0  0  0  0
   20.8501   17.9052   26.0173 H   0  0  0  0  0  0  0  0  0  0  0  0
   21.4871   19.3011   25.1340 H   0  0  0  0  0  0  0  0  0  0  0  0
   20.3121   17.9406   23.9205 C   0  0  0  0  0  0  0  0  0  0  0  0
   21.1558   17.2804   23.6791 H   0  0  0  0  0  0  0  0  0  0  0  0
   19.4333   17.2935   24.0425 H   0  0  0  0  0  0  0  0  0  0  0  0
   20.0861   18.9303   22.7528 C   0  0  0  0  0  0  0  0  0  0  0  0
   20.9582   19.5924   22.6706 H   0  0  0  0  0  0  0  0  0  0  0  0
   19.2182   19.5683   22.9655 H   0  0  0  0  0  0  0  0  0  0  0  0
   19.8581   18.1914   21.4120 C   0  0  0  0  0  0  0  0  0  0  0  0
   20.7462   17.5950   21.1612 H   0  0  0  0  0  0  0  0  0  0  0  0
   19.0309   17.4779   21.5315 H   0  0  0  0  0  0  0  0  0  0  0  0
   19.5231   19.1387   20.2343 C   0  0  0  0  0  0  0  0  0  0  0  0
   18.6204   19.7196   20.4694 H   0  0  0  0  0  0  0  0  0  0  0  0
   19.2758   18.5310   19.3526 H   0  0  0  0  0  0  0  0  0  0  0  0
   20.6785   20.0985   19.8692 C   0  0  0  0  0  0  0  0  0  0  0  0
   20.8826   20.8107   20.6782 H   0  0  0  0  0  0  0  0  0  0  0  0
   20.4254   20.6810   18.9738 H   0  0  0  0  0  0  0  0  0  0  0  0
   21.6016   19.5432   19.6580 H   0  0  0  0  0  0  0  0  0  0  0  0
   19.8631   20.1425   27.0978 C   0  0  0  0  0  0  0  0  0  0  0  0
   20.7389   20.7762   26.9416 H   0  0  0  0  0  0  0  0  0  0  0  0
   19.0300   20.7476   27.4624 H   0  0  0  0  0  0  0  0  0  0  0  0
   20.0968   19.3609   27.8241 H   0  0  0  0  0  0  0  0  0  0  0  0
  1  2  1  0  0  0  0
  1  3  1  0  0  0  0
  1  4  1  0  0  0  0
  4  5  1  0  0  0  0
  4  6  1  0  0  0  0
  4  7  1  0  0  0  0
  7  8  1  0  0  0  0
  7  9  1  0  0  0  0
  7 10  1  0  0  0  0
 10 11  1  0  0  0  0
 10 12  1  0  0  0  0
 10 13  1  0  0  0  0
 13 14  1  0  0  0  0
 13 15  1  0  0  0  0
 13 16  1  0  0  0  0
 16 17  1  0  0  0  0
 16 18  1  0  0  0  0
 16 19  1  0  0  0  0
 19 20  1  0  0  0  0
 19 21  1  0  0  0  0
 19 22  1  0  0  0  0
  1 23  1  0  0  0  0
 23 24  1  0  0  0  0
 23 25  1  0  0  0  0
 23 26  1  0  0  0  0
M  END
> <VM2 Rank>
30

> <Conf_Id>
437

> <Probability>
1.06

> <Sum Probability>
63.38

> <Delta G>
1.112

> <G>
76.578

> <E>
44.211

> <-TS>
32.367

> <U+W>
22.749

> <U>
71.833

> <W>
-49.084

> <W(PB)>
-51.404

> <W(SA)>
2.321

> <Valence>
2.344

> <Coulomb>
69.159

> <VdW>
0.330

> <VdW6>
-6.475

> <VdW12>
6.805

> <Bond>
0.178

> <Angle>
0.658

> <Pdih>
1.508

> <Idih>
0.000

> <Tether>
0.000

$$$$
VeraChem MOL file


 26 25  0  0  0  0  0  0  0  0999 V2000     
   20.4250   19.6113   25.8092 N   0  3  0  0  0  0  0  0  0  0  0  0
   20.0753   20.4661   25.3506 H   0  0  0  0  0  0  0  0  0  0  0  0
   21.4363   19.5827   25.6067 H   0  0  0  0  0  0  0  0  0  0  0  0
   19.7411   18.3903   25.2252 C   0  0  0  0  0  0  0  0  0  0  0  0
   18.6742   18.4609   25.4512 H   0  0  0  0  0  0  0  0  0  0  0  0
   20.1410   17.5115   25.7375 H   0  0  0  0  0  0  0  0  0  0  0  0
   19.9398   18.2304   23.7051 C   0  0  0  0  0  0  0  0  0  0  0  0
   21.0132   18.1587   23.4893 H   0  0  0  0  0  0  0  0  0  0  0  0
   19.4916   17.2771   23.3950 H   0  0  0  0  0  0  0  0  0  0  0  0
   19.2989   19.3863   22.8965 C   0  0  0  0  0  0  0  0  0  0  0  0
   19.8001   20.3349   23.1312 H   0  0  0  0  0  0  0  0  0  0  0  0
   18.2522   19.5033   23.2101 H   0  0  0  0  0  0  0  0  0  0  0  0
   19.3294   19.1586   21.3650 C   0  0  0  0  0  0  0  0  0  0  0  0
   18.8081   18.2226   21.1209 H   0  0  0  0  0  0  0  0  0  0  0  0
   18.7585   19.9635   20.8817 H   0  0  0  0  0  0  0  0  0  0  0  0
   20.7583   19.1297   20.7721 C   0  0  0  0  0  0  0  0  0  0  0  0
   21.3239   18.2843   21.1858 H   0  0  0  0  0  0  0  0  0  0  0  0
   21.2973   20.0439   21.0574 H   0  0  0  0  0  0  0  0  0  0  0  0
   20.7338   19.0100   19.2332 C   0  0  0  0  0  0  0  0  0  0  0  0
   20.2269   18.0890   18.9170 H   0  0  0  0  0  0  0  0  0  0  0  0
   21.7545   18.9881   18.8298 H   0  0  0  0  0  0  0  0  0  0  0  0
   20.2107   19.8614   18.7787 H   0  0  0  0  0  0  0  0  0  0  0  0
   20.1817   19.6734   27.3107 C   0  0  0  0  0  0  0  0  0  0  0  0
   20.5879   18.7735   27.7777 H   0  0  0  0  0  0  0  0  0  0  0  0
   20.6786   20.5568   27.7180 H   0  0  0  0  0  0  0  0  0  0  0  0
   19.1074   19.7350   27.4981 H   0  0  0  0  0  0  0  0  0  0  0  0
  1  2  1  0  0  0  0
  1  3  1  0  0  0  0
  1  4  1  0  0  0  0
  4  5  1  0  0  0  0
  4  6  1  0  0  0  0
  4  7  1  0  0  0  0
  7  8  1  0  0  0  0
  7  9  1  0  0  0  0
  7 10  1  0  0  0  0
 10 11  1  0  0  0  0
 10 12  1  0  0  0  0
 10 13  1  0  0  0  0
 13 14  1  0  0  0  0
 13 15  1  0  0  0  0
 13 16  1  0  0  0  0
 16 17  1  0  0  0  0
 16 18  1  0  0  0  0
 16 19  1  0  0  0  0
 19 20  1  0  0  0  0
 19 21  1  0  0  0  0
 19 22  1  0  0  0  0
  1 23  1  0  0  0  0
 23 24  1  0  0  0  0
 23 25  1  0  0  0  0
 23 26  1  0  0  0  0
M  END
> <VM2 Rank>
31

> <Conf_Id>
1493

> <Probability>
1.05

> <Sum Probability>
64.42

> <Delta G>
1.119

> <G>
76.585

> <E>
44.220

> <-TS>
32.365

> <U+W>
22.758

> <U>
71.994

> <W>
-49.236

> <W(PB)>
-51.536

> <W(SA)>
2.300

> <Valence>
2.376

> <Coulomb>
69.315

> <VdW>
0.303

> <VdW6>
-6.508

> <VdW12>
6.811

> <Bond>
0.182

> <Angle>
0.660

> <Pdih>
1.534

> <Idih>
0.000

> <Tether>
0.000

$$$$
VeraChem MOL file


 26 25  0  0  0  0  0  0  0  0999 V2000     
   20.0252   18.9535   26.2668 N   0  3  0  0  0  0  0  0  0  0  0  0
   20.9975   18.6675   26.4609 H   0  0  0  0  0  0  0  0  0  0  0  0
   19.4377   18.1743   26.6023 H   0  0  0  0  0  0  0  0  0  0  0  0
   19.8266   19.1547   24.7780 C   0  0  0  0  0  0  0  0  0  0  0  0
   20.4685   19.9816   24.4653 H   0  0  0  0  0  0  0  0  0  0  0  0
   18.7857   19.4452   24.6146 H   0  0  0  0  0  0  0  0  0  0  0  0
   20.1508   17.8995   23.9453 C   0  0  0  0  0  0  0  0  0  0  0  0
   21.1957   17.6055   24.1120 H   0  0  0  0  0  0  0  0  0  0  0  0
   19.5296   17.0648   24.2963 H   0  0  0  0  0  0  0  0  0  0  0  0
   19.9040   18.1080   22.4325 C   0  0  0  0  0  0  0  0  0  0  0  0
   18.8484   18.3651   22.2733 H   0  0  0  0  0  0  0  0  0  0  0  0
   20.0751   17.1554   21.9124 H   0  0  0  0  0  0  0  0  0  0  0  0
   20.8164   19.1978   21.8146 C   0  0  0  0  0  0  0  0  0  0  0  0
   20.5882   20.1771   22.2563 H   0  0  0  0  0  0  0  0  0  0  0  0
   21.8621   18.9783   22.0708 H   0  0  0  0  0  0  0  0  0  0  0  0
   20.6986   19.2960   20.2742 C   0  0  0  0  0  0  0  0  0  0  0  0
   20.9540   18.3288   19.8191 H   0  0  0  0  0  0  0  0  0  0  0  0
   21.4457   20.0141   19.9082 H   0  0  0  0  0  0  0  0  0  0  0  0
   19.2994   19.7436   19.7932 C   0  0  0  0  0  0  0  0  0  0  0  0
   18.5324   18.9968   20.0332 H   0  0  0  0  0  0  0  0  0  0  0  0
   19.2940   19.8833   18.7044 H   0  0  0  0  0  0  0  0  0  0  0  0
   19.0089   20.6962   20.2548 H   0  0  0  0  0  0  0  0  0  0  0  0
   19.6870   20.2369   27.0125 C   0  0  0  0  0  0  0  0  0  0  0  0
   18.6451   20.5012   26.8184 H   0  0  0  0  0  0  0  0  0  0  0  0
   19.8340   20.0784   28.0832 H   0  0  0  0  0  0  0  0  0  0  0  0
   20.3430   21.0379   26.6648 H   0  0  0  0  0  0  0  0  0  0  0  0
  1  2  1  0  0  0  0
  1  3  1  0  0  0  0
  1  4  1  0  0  0  0
  4  5  1  0  0  0  0
  4  6  1  0  0  0  0
  4  7  1  0  0  0  0
  7  8  1  0  0  0  0
  7  9  1  0  0  0  0
  7 10  1  0  0  0  0
 10 11  1  0  0  0  0
 10 12  1  0  0  0  0
 10 13  1  0  0  0  0
 13 14  1  0  0  0  0
 13 15  1  0  0  0  0
 13 16  1  0  0  0  0
 16 17  1  0  0  0  0
 16 18  1  0  0  0  0
 16 19  1  0  0  0  0
 19 20  1  0  0  0  0
 19 21  1  0  0  0  0
 19 22  1  0  0  0  0
  1 23  1  0  0  0  0
 23 24  1  0  0  0  0
 23 25  1  0  0  0  0
 23 26  1  0  0  0  0
M  END
> <VM2 Rank>
32

> <Conf_Id>
1491

> <Probability>
1.04

> <Sum Probability>
65.46

> <Delta G>
1.121

> <G>
76.587

> <E>
44.208

> <-TS>
32.379

> <U+W>
22.746

> <U>
71.734

> <W>
-48.988

> <W(PB)>
-51.298

> <W(SA)>
2.311

> <Valence>
2.508

> <Coulomb>
68.926

> <VdW>
0.300

> <VdW6>
-6.530

> <VdW12>
6.830

> <Bond>
0.185

> <Angle>
0.693

> <Pdih>
1.631

> <Idih>
0.000

> <Tether>
0.000

$$$$
VeraChem MOL file


 26 25  0  0  0  0  0  0  0  0999 V2000     
   19.7863   19.6953   25.5551 N   0  3  0  0  0  0  0  0  0  0  0  0
   18.8766   19.6101   26.0346 H   0  0  0  0  0  0  0  0  0  0  0  0
   19.6244   20.3392   24.7663 H   0  0  0  0  0  0  0  0  0  0  0  0
   20.2308   18.3420   25.0360 C   0  0  0  0  0  0  0  0  0  0  0  0
   20.3785   17.6883   25.8994 H   0  0  0  0  0  0  0  0  0  0  0  0
   21.1957   18.4719   24.5402 H   0  0  0  0  0  0  0  0  0  0  0  0
   19.2286   17.6868   24.0631 C   0  0  0  0  0  0  0  0  0  0  0  0
   19.6085   16.6955   23.7824 H   0  0  0  0  0  0  0  0  0  0  0  0
   18.2796   17.5130   24.5874 H   0  0  0  0  0  0  0  0  0  0  0  0
   18.9616   18.5132   22.7797 C   0  0  0  0  0  0  0  0  0  0  0  0
   18.4890   19.4693   23.0417 H   0  0  0  0  0  0  0  0  0  0  0  0
   18.2310   17.9723   22.1623 H   0  0  0  0  0  0  0  0  0  0  0  0
   20.2386   18.7720   21.9442 C   0  0  0  0  0  0  0  0  0  0  0  0
   20.9616   19.3536   22.5316 H   0  0  0  0  0  0  0  0  0  0  0  0
   20.7207   17.8141   21.7048 H   0  0  0  0  0  0  0  0  0  0  0  0
   19.9244   19.5304   20.6354 C   0  0  0  0  0  0  0  0  0  0  0  0
   19.4400   20.4890   20.8686 H   0  0  0  0  0  0  0  0  0  0  0  0
   19.2091   18.9524   20.0336 H   0  0  0  0  0  0  0  0  0  0  0  0
   21.1992   19.7902   19.8045 C   0  0  0  0  0  0  0  0  0  0  0  0
   20.9559   20.3286   18.8793 H   0  0  0  0  0  0  0  0  0  0  0  0
   21.6883   18.8474   19.5266 H   0  0  0  0  0  0  0  0  0  0  0  0
   21.9207   20.3967   20.3672 H   0  0  0  0  0  0  0  0  0  0  0  0
   20.8385   20.2601   26.4990 C   0  0  0  0  0  0  0  0  0  0  0  0
   21.7822   20.3703   25.9603 H   0  0  0  0  0  0  0  0  0  0  0  0
   20.5062   21.2344   26.8643 H   0  0  0  0  0  0  0  0  0  0  0  0
   20.9702   19.5762   27.3403 H   0  0  0  0  0  0  0  0  0  0  0  0
  1  2  1  0  0  0  0
  1  3  1  0  0  0  0
  1  4  1  0  0  0  0
  4  5  1  0  0  0  0
  4  6  1  0  0  0  0
  4  7  1  0  0  0  0
  7  8  1  0  0  0  0
  7  9  1  0  0  0  0
  7 10  1  0  0  0  0
 10 11  1  0  0  0  0
 10 12  1  0  0  0  0
 10 13  1  0  0  0  0
 13 14  1  0  0  0  0
 13 15  1  0  0  0  0
 13 16  1  0  0  0  0
 16 17  1  0  0  0  0
 16 18  1  0  0  0  0
 16 19  1  0  0  0  0
 19 20  1  0  0  0  0
 19 21  1  0  0  0  0
 19 22  1  0  0  0  0
  1 23  1  0  0  0  0
 23 24  1  0  0  0  0
 23 25  1  0  0  0  0
 23 26  1  0  0  0  0
M  END
> <VM2 Rank>
33

> <Conf_Id>
1244

> <Probability>
1.00

> <Sum Probability>
66.46

> <Delta G>
1.146

> <G>
76.612

> <E>
44.169

> <-TS>
32.443

> <U+W>
22.707

> <U>
71.905

> <W>
-49.198

> <W(PB)>
-51.489

> <W(SA)>
2.292

> <Valence>
2.125

> <Coulomb>
69.686

> <VdW>
0.093

> <VdW6>
-6.766

> <VdW12>
6.859

> <Bond>
0.169

> <Angle>
0.621

> <Pdih>
1.336

> <Idih>
0.000

> <Tether>
0.000

$$$$
VeraChem MOL file


 26 25  0  0  0  0  0  0  0  0999 V2000     
   20.4248   18.8031   25.9412 N   0  3  0  0  0  0  0  0  0  0  0  0
   21.1911   18.1437   25.7350 H   0  0  0  0  0  0  0  0  0  0  0  0
   19.7494   18.2699   26.5107 H   0  0  0  0  0  0  0  0  0  0  0  0
   19.7725   19.2667   24.6544 C   0  0  0  0  0  0  0  0  0  0  0  0
   20.5205   19.8215   24.0830 H   0  0  0  0  0  0  0  0  0  0  0  0
   18.9612   19.9505   24.9165 H   0  0  0  0  0  0  0  0  0  0  0  0
   19.2196   18.1098   23.8003 C   0  0  0  0  0  0  0  0  0  0  0  0
   20.0312   17.4158   23.5472 H   0  0  0  0  0  0  0  0  0  0  0  0
   18.4991   17.5352   24.3972 H   0  0  0  0  0  0  0  0  0  0  0  0
   18.5187   18.6006   22.5088 C   0  0  0  0  0  0  0  0  0  0  0  0
   17.6268   19.1793   22.7866 H   0  0  0  0  0  0  0  0  0  0  0  0
   18.1505   17.7293   21.9497 H   0  0  0  0  0  0  0  0  0  0  0  0
   19.4023   19.4678   21.5746 C   0  0  0  0  0  0  0  0  0  0  0  0
   18.7956   19.7737   20.7110 H   0  0  0  0  0  0  0  0  0  0  0  0
   19.6901   20.3968   22.0847 H   0  0  0  0  0  0  0  0  0  0  0  0
   20.6683   18.7385   21.0657 C   0  0  0  0  0  0  0  0  0  0  0  0
   20.3841   17.7884   20.5920 H   0  0  0  0  0  0  0  0  0  0  0  0
   21.3271   18.4899   21.9084 H   0  0  0  0  0  0  0  0  0  0  0  0
   21.4540   19.6000   20.0542 C   0  0  0  0  0  0  0  0  0  0  0  0
   22.3494   19.0691   19.7059 H   0  0  0  0  0  0  0  0  0  0  0  0
   21.7784   20.5451   20.5088 H   0  0  0  0  0  0  0  0  0  0  0  0
   20.8401   19.8364   19.1753 H   0  0  0  0  0  0  0  0  0  0  0  0
   20.9479   20.0035   26.7179 C   0  0  0  0  0  0  0  0  0  0  0  0
   21.4148   19.6561   27.6423 H   0  0  0  0  0  0  0  0  0  0  0  0
   21.6842   20.5323   26.1087 H   0  0  0  0  0  0  0  0  0  0  0  0
   20.1149   20.6697   26.9532 H   0  0  0  0  0  0  0  0  0  0  0  0
  1  2  1  0  0  0  0
  1  3  1  0  0  0  0
  1  4  1  0  0  0  0
  4  5  1  0  0  0  0
  4  6  1  0  0  0  0
  4  7  1  0  0  0  0
  7  8  1  0  0  0  0
  7  9  1  0  0  0  0
  7 10  1  0  0  0  0
 10 11  1  0  0  0  0
 10 12  1  0  0  0  0
 10 13  1  0  0  0  0
 13 14  1  0  0  0  0
 13 15  1  0  0  0  0
 13 16  1  0  0  0  0
 16 17  1  0  0  0  0
 16 18  1  0  0  0  0
 16 19  1  0  0  0  0
 19 20  1  0  0  0  0
 19 21  1  0  0  0  0
 19 22  1  0  0  0  0
  1 23  1  0  0  0  0
 23 24  1  0  0  0  0
 23 25  1  0  0  0  0
 23 26  1  0  0  0  0
M  END
> <VM2 Rank>
34

> <Conf_Id>
1295

> <Probability>
0.99

> <Sum Probability>
67.45

> <Delta G>
1.154

> <G>
76.620

> <E>
44.123

> <-TS>
32.497

> <U+W>
22.661

> <U>
72.035

> <W>
-49.374

> <W(PB)>
-51.684

> <W(SA)>
2.310

> <Valence>
2.479

> <Coulomb>
69.414

> <VdW>
0.143

> <VdW6>
-6.882

> <VdW12>
7.025

> <Bond>
0.193

> <Angle>
0.854

> <Pdih>
1.433

> <Idih>
0.000

> <Tether>
0.000

$$$$
VeraChem MOL file


 26 25  0  0  0  0  0  0  0  0999 V2000     
   20.0227   19.7200   25.5636 N   0  3  0  0  0  0  0  0  0  0  0  0
   20.1029   20.3893   24.7834 H   0  0  0  0  0  0  0  0  0  0  0  0
   20.8947   19.8208   26.1060 H   0  0  0  0  0  0  0  0  0  0  0  0
   19.9045   18.3079   25.0244 C   0  0  0  0  0  0  0  0  0  0  0  0
   18.9706   18.2396   24.4614 H   0  0  0  0  0  0  0  0  0  0  0  0
   19.8348   17.6315   25.8801 H   0  0  0  0  0  0  0  0  0  0  0  0
   21.0858   17.8809   24.1288 C   0  0  0  0  0  0  0  0  0  0  0  0
   22.0113   17.9029   24.7194 H   0  0  0  0  0  0  0  0  0  0  0  0
   20.9393   16.8346   23.8295 H   0  0  0  0  0  0  0  0  0  0  0  0
   21.2655   18.7540   22.8612 C   0  0  0  0  0  0  0  0  0  0  0  0
   22.1334   18.3801   22.3004 H   0  0  0  0  0  0  0  0  0  0  0  0
   21.5110   19.7851   23.1486 H   0  0  0  0  0  0  0  0  0  0  0  0
   20.0242   18.7496   21.9366 C   0  0  0  0  0  0  0  0  0  0  0  0
   19.7683   17.7145   21.6710 H   0  0  0  0  0  0  0  0  0  0  0  0
   19.1574   19.1650   22.4677 H   0  0  0  0  0  0  0  0  0  0  0  0
   20.2658   19.5661   20.6474 C   0  0  0  0  0  0  0  0  0  0  0  0
   21.1254   19.1527   20.1013 H   0  0  0  0  0  0  0  0  0  0  0  0
   20.5243   20.6023   20.9070 H   0  0  0  0  0  0  0  0  0  0  0  0
   19.0261   19.5631   19.7275 C   0  0  0  0  0  0  0  0  0  0  0  0
   19.2171   20.1469   18.8178 H   0  0  0  0  0  0  0  0  0  0  0  0
   18.1573   20.0034   20.2339 H   0  0  0  0  0  0  0  0  0  0  0  0
   18.7629   18.5417   19.4230 H   0  0  0  0  0  0  0  0  0  0  0  0
   18.8133   20.0485   26.4276 C   0  0  0  0  0  0  0  0  0  0  0  0
   18.7671   19.3459   27.2625 H   0  0  0  0  0  0  0  0  0  0  0  0
   18.9110   21.0677   26.8082 H   0  0  0  0  0  0  0  0  0  0  0  0
   17.9071   19.9655   25.8235 H   0  0  0  0  0  0  0  0  0  0  0  0
  1  2  1  0  0  0  0
  1  3  1  0  0  0  0
  1  4  1  0  0  0  0
  4  5  1  0  0  0  0
  4  6  1  0  0  0  0
  4  7  1  0  0  0  0
  7  8  1  0  0  0  0
  7  9  1  0  0  0  0
  7 10  1  0  0  0  0
 10 11  1  0  0  0  0
 10 12  1  0  0  0  0
 10 13  1  0  0  0  0
 13 14  1  0  0  0  0
 13 15  1  0  0  0  0
 13 16  1  0  0  0  0
 16 17  1  0  0  0  0
 16 18  1  0  0  0  0
 16 19  1  0  0  0  0
 19 20  1  0  0  0  0
 19 21  1  0  0  0  0
 19 22  1  0  0  0  0
  1 23  1  0  0  0  0
 23 24  1  0  0  0  0
 23 25  1  0  0  0  0
 23 26  1  0  0  0  0
M  END
> <VM2 Rank>
35

> <Conf_Id>
1325

> <Probability>
0.97

> <Sum Probability>
68.42

> <Delta G>
1.161

> <G>
76.627

> <E>
44.184

> <-TS>
32.443

> <U+W>
22.722

> <U>
71.905

> <W>
-49.182

> <W(PB)>
-51.494

> <W(SA)>
2.312

> <Valence>
2.125

> <Coulomb>
69.686

> <VdW>
0.093

> <VdW6>
-6.765

> <VdW12>
6.859

> <Bond>
0.169

> <Angle>
0.621

> <Pdih>
1.336

> <Idih>
0.000

> <Tether>
0.000

$$$$
VeraChem MOL file


 26 25  0  0  0  0  0  0  0  0999 V2000     
   19.3996   19.5050   25.7730 N   0  3  0  0  0  0  0  0  0  0  0  0
   18.4322   19.2712   25.5006 H   0  0  0  0  0  0  0  0  0  0  0  0
   19.5979   20.4165   25.3337 H   0  0  0  0  0  0  0  0  0  0  0  0
   20.3582   18.4542   25.2470 C   0  0  0  0  0  0  0  0  0  0  0  0
   20.1121   17.5085   25.7365 H   0  0  0  0  0  0  0  0  0  0  0  0
   21.3696   18.7403   25.5465 H   0  0  0  0  0  0  0  0  0  0  0  0
   20.3032   18.2681   23.7180 C   0  0  0  0  0  0  0  0  0  0  0  0
   20.9576   17.4290   23.4469 H   0  0  0  0  0  0  0  0  0  0  0  0
   19.2850   17.9796   23.4282 H   0  0  0  0  0  0  0  0  0  0  0  0
   20.7487   19.5365   22.9478 C   0  0  0  0  0  0  0  0  0  0  0  0
   21.7248   19.8631   23.3329 H   0  0  0  0  0  0  0  0  0  0  0  0
   20.0488   20.3606   23.1399 H   0  0  0  0  0  0  0  0  0  0  0  0
   20.8727   19.3184   21.4196 C   0  0  0  0  0  0  0  0  0  0  0  0
   21.2991   20.2266   20.9716 H   0  0  0  0  0  0  0  0  0  0  0  0
   21.5903   18.5108   21.2194 H   0  0  0  0  0  0  0  0  0  0  0  0
   19.5250   19.0020   20.7284 C   0  0  0  0  0  0  0  0  0  0  0  0
   18.7917   19.7845   20.9686 H   0  0  0  0  0  0  0  0  0  0  0  0
   19.1168   18.0558   21.1078 H   0  0  0  0  0  0  0  0  0  0  0  0
   19.6810   18.9009   19.1960 C   0  0  0  0  0  0  0  0  0  0  0  0
   20.0493   19.8446   18.7729 H   0  0  0  0  0  0  0  0  0  0  0  0
   18.7172   18.6735   18.7223 H   0  0  0  0  0  0  0  0  0  0  0  0
   20.3865   18.1054   18.9227 H   0  0  0  0  0  0  0  0  0  0  0  0
   19.5196   19.6049   27.2873 C   0  0  0  0  0  0  0  0  0  0  0  0
   20.5427   19.8840   27.5488 H   0  0  0  0  0  0  0  0  0  0  0  0
   18.8250   20.3647   27.6525 H   0  0  0  0  0  0  0  0  0  0  0  0
   19.2749   18.6375   27.7314 H   0  0  0  0  0  0  0  0  0  0  0  0
  1  2  1  0  0  0  0
  1  3  1  0  0  0  0
  1  4  1  0  0  0  0
  4  5  1  0  0  0  0
  4  6  1  0  0  0  0
  4  7  1  0  0  0  0
  7  8  1  0  0  0  0
  7  9  1  0  0  0  0
  7 10  1  0  0  0  0
 10 11  1  0  0  0  0
 10 12  1  0  0  0  0
 10 13  1  0  0  0  0
 13 14  1  0  0  0  0
 13 15  1  0  0  0  0
 13 16  1  0  0  0  0
 16 17  1  0  0  0  0
 16 18  1  0  0  0  0
 16 19  1  0  0  0  0
 19 20  1  0  0  0  0
 19 21  1  0  0  0  0
 19 22  1  0  0  0  0
  1 23  1  0  0  0  0
 23 24  1  0  0  0  0
 23 25  1  0  0  0  0
 23 26  1  0  0  0  0
M  END
> <VM2 Rank>
36

> <Conf_Id>
981

> <Probability>
0.93

> <Sum Probability>
69.35

> <Delta G>
1.191

> <G>
76.657

> <E>
44.292

> <-TS>
32.365

> <U+W>
22.830

> <U>
71.994

> <W>
-49.164

> <W(PB)>
-51.484

> <W(SA)>
2.320

> <Valence>
2.376

> <Coulomb>
69.315

> <VdW>
0.303

> <VdW6>
-6.507

> <VdW12>
6.810

> <Bond>
0.182

> <Angle>
0.660

> <Pdih>
1.534

> <Idih>
0.000

> <Tether>
0.000

$$$$
VeraChem MOL file


 26 25  0  0  0  0  0  0  0  0999 V2000     
   19.7308   18.7293   26.0268 N   0  3  0  0  0  0  0  0  0  0  0  0
   20.1163   17.7727   26.0565 H   0  0  0  0  0  0  0  0  0  0  0  0
   18.7854   18.6339   25.6265 H   0  0  0  0  0  0  0  0  0  0  0  0
   20.5876   19.6096   25.1374 C   0  0  0  0  0  0  0  0  0  0  0  0
   21.5749   19.6824   25.6007 H   0  0  0  0  0  0  0  0  0  0  0  0
   20.1438   20.6083   25.1220 H   0  0  0  0  0  0  0  0  0  0  0  0
   20.7388   19.0868   23.6950 C   0  0  0  0  0  0  0  0  0  0  0  0
   21.4675   19.7248   23.1800 H   0  0  0  0  0  0  0  0  0  0  0  0
   21.1653   18.0751   23.7149 H   0  0  0  0  0  0  0  0  0  0  0  0
   19.3990   19.0849   22.9163 C   0  0  0  0  0  0  0  0  0  0  0  0
   18.9918   20.1049   22.8778 H   0  0  0  0  0  0  0  0  0  0  0  0
   18.6617   18.4793   23.4596 H   0  0  0  0  0  0  0  0  0  0  0  0
   19.5192   18.5206   21.4790 C   0  0  0  0  0  0  0  0  0  0  0  0
   19.9199   17.4981   21.5166 H   0  0  0  0  0  0  0  0  0  0  0  0
   18.5098   18.4394   21.0523 H   0  0  0  0  0  0  0  0  0  0  0  0
   20.3910   19.3887   20.5406 C   0  0  0  0  0  0  0  0  0  0  0  0
   21.4273   19.4171   20.9025 H   0  0  0  0  0  0  0  0  0  0  0  0
   20.0233   20.4244   20.5447 H   0  0  0  0  0  0  0  0  0  0  0  0
   20.3820   18.8490   19.0943 C   0  0  0  0  0  0  0  0  0  0  0  0
   19.3652   18.8442   18.6804 H   0  0  0  0  0  0  0  0  0  0  0  0
   20.7726   17.8239   19.0532 H   0  0  0  0  0  0  0  0  0  0  0  0
   21.0071   19.4739   18.4433 H   0  0  0  0  0  0  0  0  0  0  0  0
   19.6596   19.3210   27.4276 C   0  0  0  0  0  0  0  0  0  0  0  0
   19.2197   20.3193   27.3739 H   0  0  0  0  0  0  0  0  0  0  0  0
   19.0402   18.6782   28.0571 H   0  0  0  0  0  0  0  0  0  0  0  0
   20.6679   19.3827   27.8430 H   0  0  0  0  0  0  0  0  0  0  0  0
  1  2  1  0  0  0  0
  1  3  1  0  0  0  0
  1  4  1  0  0  0  0
  4  5  1  0  0  0  0
  4  6  1  0  0  0  0
  4  7  1  0  0  0  0
  7  8  1  0  0  0  0
  7  9  1  0  0  0  0
  7 10  1  0  0  0  0
 10 11  1  0  0  0  0
 10 12  1  0  0  0  0
 10 13  1  0  0  0  0
 13 14  1  0  0  0  0
 13 15  1  0  0  0  0
 13 16  1  0  0  0  0
 16 17  1  0  0  0  0
 16 18  1  0  0  0  0
 16 19  1  0  0  0  0
 19 20  1  0  0  0  0
 19 21  1  0  0  0  0
 19 22  1  0  0  0  0
  1 23  1  0  0  0  0
 23 24  1  0  0  0  0
 23 25  1  0  0  0  0
 23 26  1  0  0  0  0
M  END
> <VM2 Rank>
37

> <Conf_Id>
1882

> <Probability>
0.91

> <Sum Probability>
70.26

> <Delta G>
1.200

> <G>
76.666

> <E>
44.336

> <-TS>
32.330

> <U+W>
22.874

> <U>
71.903

> <W>
-49.029

> <W(PB)>
-51.327

> <W(SA)>
2.298

> <Valence>
2.409

> <Coulomb>
69.133

> <VdW>
0.360

> <VdW6>
-6.461

> <VdW12>
6.822

> <Bond>
0.187

> <Angle>
0.708

> <Pdih>
1.514

> <Idih>
0.000

> <Tether>
0.000

$$$$
VeraChem MOL file


 26 25  0  0  0  0  0  0  0  0999 V2000     
   19.5564   18.7128   25.9104 N   0  3  0  0  0  0  0  0  0  0  0  0
   20.2854   18.3257   26.5296 H   0  0  0  0  0  0  0  0  0  0  0  0
   18.9584   17.9114   25.6559 H   0  0  0  0  0  0  0  0  0  0  0  0
   20.1878   19.3099   24.6690 C   0  0  0  0  0  0  0  0  0  0  0  0
   20.8206   20.1441   24.9821 H   0  0  0  0  0  0  0  0  0  0  0  0
   19.3834   19.7031   24.0426 H   0  0  0  0  0  0  0  0  0  0  0  0
   21.0251   18.2977   23.8641 C   0  0  0  0  0  0  0  0  0  0  0  0
   21.8049   17.8792   24.5143 H   0  0  0  0  0  0  0  0  0  0  0  0
   20.3934   17.4534   23.5601 H   0  0  0  0  0  0  0  0  0  0  0  0
   21.6987   18.9315   22.6213 C   0  0  0  0  0  0  0  0  0  0  0  0
   22.2763   18.1585   22.0957 H   0  0  0  0  0  0  0  0  0  0  0  0
   22.4309   19.6791   22.9565 H   0  0  0  0  0  0  0  0  0  0  0  0
   20.7232   19.6052   21.6213 C   0  0  0  0  0  0  0  0  0  0  0  0
   20.2156   20.4515   22.1033 H   0  0  0  0  0  0  0  0  0  0  0  0
   21.3129   20.0356   20.8001 H   0  0  0  0  0  0  0  0  0  0  0  0
   19.6729   18.6349   21.0305 C   0  0  0  0  0  0  0  0  0  0  0  0
   19.0221   18.2500   21.8270 H   0  0  0  0  0  0  0  0  0  0  0  0
   20.1788   17.7671   20.5847 H   0  0  0  0  0  0  0  0  0  0  0  0
   18.7994   19.3239   19.9605 C   0  0  0  0  0  0  0  0  0  0  0  0
   19.4114   19.6879   19.1249 H   0  0  0  0  0  0  0  0  0  0  0  0
   18.2566   20.1787   20.3845 H   0  0  0  0  0  0  0  0  0  0  0  0
   18.0588   18.6227   19.5544 H   0  0  0  0  0  0  0  0  0  0  0  0
   18.7446   19.7742   26.6398 C   0  0  0  0  0  0  0  0  0  0  0  0
   17.9596   20.1447   25.9768 H   0  0  0  0  0  0  0  0  0  0  0  0
   18.2956   19.3316   27.5318 H   0  0  0  0  0  0  0  0  0  0  0  0
   19.4042   20.5958   26.9278 H   0  0  0  0  0  0  0  0  0  0  0  0
  1  2  1  0  0  0  0
  1  3  1  0  0  0  0
  1  4  1  0  0  0  0
  4  5  1  0  0  0  0
  4  6  1  0  0  0  0
  4  7  1  0  0  0  0
  7  8  1  0  0  0  0
  7  9  1  0  0  0  0
  7 10  1  0  0  0  0
 10 11  1  0  0  0  0
 10 12  1  0  0  0  0
 10 13  1  0  0  0  0
 13 14  1  0  0  0  0
 13 15  1  0  0  0  0
 13 16  1  0  0  0  0
 16 17  1  0  0  0  0
 16 18  1  0  0  0  0
 16 19  1  0  0  0  0
 19 20  1  0  0  0  0
 19 21  1  0  0  0  0
 19 22  1  0  0  0  0
  1 23  1  0  0  0  0
 23 24  1  0  0  0  0
 23 25  1  0  0  0  0
 23 26  1  0  0  0  0
M  END
> <VM2 Rank>
38

> <Conf_Id>
1352

> <Probability>
0.90

> <Sum Probability>
71.16

> <Delta G>
1.208

> <G>
76.674

> <E>
44.177

> <-TS>
32.497

> <U+W>
22.715

> <U>
72.035

> <W>
-49.321

> <W(PB)>
-51.620

> <W(SA)>
2.300

> <Valence>
2.479

> <Coulomb>
69.414

> <VdW>
0.143

> <VdW6>
-6.883

> <VdW12>
7.025

> <Bond>
0.193

> <Angle>
0.854

> <Pdih>
1.432

> <Idih>
0.000

> <Tether>
0.000

$$$$
VeraChem MOL file


 26 25  0  0  0  0  0  0  0  0999 V2000     
   20.0306   18.7533   26.3059 N   0  3  0  0  0  0  0  0  0  0  0  0
   20.8209   18.0922   26.3627 H   0  0  0  0  0  0  0  0  0  0  0  0
   19.2011   18.2155   26.6016 H   0  0  0  0  0  0  0  0  0  0  0  0
   19.8576   19.2402   24.8813 C   0  0  0  0  0  0  0  0  0  0  0  0
   20.7570   19.7974   24.6091 H   0  0  0  0  0  0  0  0  0  0  0  0
   19.0075   19.9268   24.8626 H   0  0  0  0  0  0  0  0  0  0  0  0
   19.6243   18.0992   23.8723 C   0  0  0  0  0  0  0  0  0  0  0  0
   20.4783   17.4090   23.8904 H   0  0  0  0  0  0  0  0  0  0  0  0
   18.7453   17.5198   24.1847 H   0  0  0  0  0  0  0  0  0  0  0  0
   19.3997   18.6107   22.4295 C   0  0  0  0  0  0  0  0  0  0  0  0
   18.5379   19.2921   22.4124 H   0  0  0  0  0  0  0  0  0  0  0  0
   19.1309   17.7531   21.7992 H   0  0  0  0  0  0  0  0  0  0  0  0
   20.6422   19.3230   21.8362 C   0  0  0  0  0  0  0  0  0  0  0  0
   20.9250   20.1661   22.4802 H   0  0  0  0  0  0  0  0  0  0  0  0
   21.4985   18.6345   21.8347 H   0  0  0  0  0  0  0  0  0  0  0  0
   20.4155   19.8669   20.4046 C   0  0  0  0  0  0  0  0  0  0  0  0
   21.2962   20.4536   20.1077 H   0  0  0  0  0  0  0  0  0  0  0  0
   19.5669   20.5653   20.4020 H   0  0  0  0  0  0  0  0  0  0  0  0
   20.1804   18.7584   19.3531 C   0  0  0  0  0  0  0  0  0  0  0  0
   19.2405   18.2224   19.5338 H   0  0  0  0  0  0  0  0  0  0  0  0
   21.0000   18.0282   19.3585 H   0  0  0  0  0  0  0  0  0  0  0  0
   20.1236   19.1908   18.3457 H   0  0  0  0  0  0  0  0  0  0  0  0
   20.2577   19.9383   27.2343 C   0  0  0  0  0  0  0  0  0  0  0  0
   21.1582   20.4718   26.9221 H   0  0  0  0  0  0  0  0  0  0  0  0
   19.3949   20.6061   27.1819 H   0  0  0  0  0  0  0  0  0  0  0  0
   20.3806   19.5739   28.2567 H   0  0  0  0  0  0  0  0  0  0  0  0
  1  2  1  0  0  0  0
  1  3  1  0  0  0  0
  1  4  1  0  0  0  0
  4  5  1  0  0  0  0
  4  6  1  0  0  0  0
  4  7  1  0  0  0  0
  7  8  1  0  0  0  0
  7  9  1  0  0  0  0
  7 10  1  0  0  0  0
 10 11  1  0  0  0  0
 10 12  1  0  0  0  0
 10 13  1  0  0  0  0
 13 14  1  0  0  0  0
 13 15  1  0  0  0  0
 13 16  1  0  0  0  0
 16 17  1  0  0  0  0
 16 18  1  0  0  0  0
 16 19  1  0  0  0  0
 19 20  1  0  0  0  0
 19 21  1  0  0  0  0
 19 22  1  0  0  0  0
  1 23  1  0  0  0  0
 23 24  1  0  0  0  0
 23 25  1  0  0  0  0
 23 26  1  0  0  0  0
M  END
> <VM2 Rank>
39

> <Conf_Id>
1036

> <Probability>
0.89

> <Sum Probability>
72.06

> <Delta G>
1.215

> <G>
76.681

> <E>
44.335

> <-TS>
32.346

> <U+W>
22.873

> <U>
71.810

> <W>
-48.937

> <W(PB)>
-51.227

> <W(SA)>
2.290

> <Valence>
2.569

> <Coulomb>
68.877

> <VdW>
0.364

> <VdW6>
-6.470

> <VdW12>
6.834

> <Bond>
0.191

> <Angle>
0.752

> <Pdih>
1.626

> <Idih>
0.000

> <Tether>
0.000

$$$$
VeraChem MOL file


 26 25  0  0  0  0  0  0  0  0999 V2000     
   20.8181   19.1966   25.8741 N   0  3  0  0  0  0  0  0  0  0  0  0
   21.4323   19.6323   25.1701 H   0  0  0  0  0  0  0  0  0  0  0  0
   21.4550   18.8577   26.6126 H   0  0  0  0  0  0  0  0  0  0  0  0
   20.0756   18.0186   25.2626 C   0  0  0  0  0  0  0  0  0  0  0  0
   19.4321   17.5950   26.0379 H   0  0  0  0  0  0  0  0  0  0  0  0
   20.8216   17.2652   24.9969 H   0  0  0  0  0  0  0  0  0  0  0  0
   19.2295   18.3488   24.0134 C   0  0  0  0  0  0  0  0  0  0  0  0
   18.7235   17.4306   23.6869 H   0  0  0  0  0  0  0  0  0  0  0  0
   18.4368   19.0603   24.2784 H   0  0  0  0  0  0  0  0  0  0  0  0
   20.0767   18.9091   22.8463 C   0  0  0  0  0  0  0  0  0  0  0  0
   20.8854   18.2022   22.6183 H   0  0  0  0  0  0  0  0  0  0  0  0
   20.5501   19.8524   23.1495 H   0  0  0  0  0  0  0  0  0  0  0  0
   19.2187   19.1542   21.5817 C   0  0  0  0  0  0  0  0  0  0  0  0
   18.7862   18.2048   21.2370 H   0  0  0  0  0  0  0  0  0  0  0  0
   18.3711   19.8026   21.8434 H   0  0  0  0  0  0  0  0  0  0  0  0
   20.0030   19.8154   20.4224 C   0  0  0  0  0  0  0  0  0  0  0  0
   20.4167   20.7779   20.7546 H   0  0  0  0  0  0  0  0  0  0  0  0
   19.3010   20.0475   19.6092 H   0  0  0  0  0  0  0  0  0  0  0  0
   21.1376   18.9275   19.8623 C   0  0  0  0  0  0  0  0  0  0  0  0
   21.9287   18.7671   20.6051 H   0  0  0  0  0  0  0  0  0  0  0  0
   21.5995   19.4015   18.9866 H   0  0  0  0  0  0  0  0  0  0  0  0
   20.7546   17.9473   19.5498 H   0  0  0  0  0  0  0  0  0  0  0  0
   19.8487   20.2199   26.4543 C   0  0  0  0  0  0  0  0  0  0  0  0
   19.2240   19.7351   27.2077 H   0  0  0  0  0  0  0  0  0  0  0  0
   20.4179   21.0311   26.9136 H   0  0  0  0  0  0  0  0  0  0  0  0
   19.2224   20.6183   25.6536 H   0  0  0  0  0  0  0  0  0  0  0  0
  1  2  1  0  0  0  0
  1  3  1  0  0  0  0
  1  4  1  0  0  0  0
  4  5  1  0  0  0  0
  4  6  1  0  0  0  0
  4  7  1  0  0  0  0
  7  8  1  0  0  0  0
  7  9  1  0  0  0  0
  7 10  1  0  0  0  0
 10 11  1  0  0  0  0
 10 12  1  0  0  0  0
 10 13  1  0  0  0  0
 13 14  1  0  0  0  0
 13 15  1  0  0  0  0
 13 16  1  0  0  0  0
 16 17  1  0  0  0  0
 16 18  1  0  0  0  0
 16 19  1  0  0  0  0
 19 20  1  0  0  0  0
 19 21  1  0  0  0  0
 19 22  1  0  0  0  0
  1 23  1  0  0  0  0
 23 24  1  0  0  0  0
 23 25  1  0  0  0  0
 23 26  1  0  0  0  0
M  END
> <VM2 Rank>
40

> <Conf_Id>
1583

> <Probability>
0.89

> <Sum Probability>
72.94

> <Delta G>
1.217

> <G>
76.683

> <E>
44.091

> <-TS>
32.591

> <U+W>
22.629

> <U>
72.184

> <W>
-49.554

> <W(PB)>
-51.790

> <W(SA)>
2.236

> <Valence>
2.592

> <Coulomb>
69.072

> <VdW>
0.519

> <VdW6>
-7.380

> <VdW12>
7.899

> <Bond>
0.219

> <Angle>
0.818

> <Pdih>
1.555

> <Idih>
0.000

> <Tether>
0.000

$$$$
VeraChem MOL file


 26 25  0  0  0  0  0  0  0  0999 V2000     
   19.9246   18.7424   26.3021 N   0  3  0  0  0  0  0  0  0  0  0  0
   20.8232   18.3819   26.6591 H   0  0  0  0  0  0  0  0  0  0  0  0
   19.2829   17.9344   26.3082 H   0  0  0  0  0  0  0  0  0  0  0  0
   20.0947   19.2645   24.8897 C   0  0  0  0  0  0  0  0  0  0  0  0
   20.7871   20.1094   24.9256 H   0  0  0  0  0  0  0  0  0  0  0  0
   19.1223   19.6296   24.5511 H   0  0  0  0  0  0  0  0  0  0  0  0
   20.6247   18.2018   23.9077 C   0  0  0  0  0  0  0  0  0  0  0  0
   21.5788   17.8104   24.2851 H   0  0  0  0  0  0  0  0  0  0  0  0
   19.9293   17.3526   23.8709 H   0  0  0  0  0  0  0  0  0  0  0  0
   20.8414   18.7586   22.4805 C   0  0  0  0  0  0  0  0  0  0  0  0
   21.3219   17.9778   21.8768 H   0  0  0  0  0  0  0  0  0  0  0  0
   21.5463   19.6006   22.5190 H   0  0  0  0  0  0  0  0  0  0  0  0
   19.5250   19.2085   21.7967 C   0  0  0  0  0  0  0  0  0  0  0  0
   18.8281   18.3609   21.7403 H   0  0  0  0  0  0  0  0  0  0  0  0
   19.0329   19.9723   22.4133 H   0  0  0  0  0  0  0  0  0  0  0  0
   19.7364   19.7973   20.3805 C   0  0  0  0  0  0  0  0  0  0  0  0
   20.4241   20.6529   20.4323 H   0  0  0  0  0  0  0  0  0  0  0  0
   18.7781   20.1957   20.0186 H   0  0  0  0  0  0  0  0  0  0  0  0
   20.2638   18.7668   19.3560 C   0  0  0  0  0  0  0  0  0  0  0  0
   21.2776   18.4307   19.6059 H   0  0  0  0  0  0  0  0  0  0  0  0
   20.3022   19.2090   18.3520 H   0  0  0  0  0  0  0  0  0  0  0  0
   19.6104   17.8859   19.3093 H   0  0  0  0  0  0  0  0  0  0  0  0
   19.3974   19.8501   27.2038 C   0  0  0  0  0  0  0  0  0  0  0  0
   20.1084   20.6793   27.2072 H   0  0  0  0  0  0  0  0  0  0  0  0
   18.4316   20.1921   26.8254 H   0  0  0  0  0  0  0  0  0  0  0  0
   19.2797   19.4610   28.2176 H   0  0  0  0  0  0  0  0  0  0  0  0
  1  2  1  0  0  0  0
  1  3  1  0  0  0  0
  1  4  1  0  0  0  0
  4  5  1  0  0  0  0
  4  6  1  0  0  0  0
  4  7  1  0  0  0  0
  7  8  1  0  0  0  0
  7  9  1  0  0  0  0
  7 10  1  0  0  0  0
 10 11  1  0  0  0  0
 10 12  1  0  0  0  0
 10 13  1  0  0  0  0
 13 14  1  0  0  0  0
 13 15  1  0  0  0  0
 13 16  1  0  0  0  0
 16 17  1  0  0  0  0
 16 18  1  0  0  0  0
 16 19  1  0  0  0  0
 19 20  1  0  0  0  0
 19 21  1  0  0  0  0
 19 22  1  0  0  0  0
  1 23  1  0  0  0  0
 23 24  1  0  0  0  0
 23 25  1  0  0  0  0
 23 26  1  0  0  0  0
M  END
> <VM2 Rank>
41

> <Conf_Id>
1632

> <Probability>
0.88

> <Sum Probability>
73.82

> <Delta G>
1.221

> <G>
76.687

> <E>
44.341

> <-TS>
32.346

> <U+W>
22.879

> <U>
71.810

> <W>
-48.931

> <W(PB)>
-51.257

> <W(SA)>
2.326

> <Valence>
2.568

> <Coulomb>
68.877

> <VdW>
0.364

> <VdW6>
-6.470

> <VdW12>
6.834

> <Bond>
0.191

> <Angle>
0.752

> <Pdih>
1.626

> <Idih>
0.000

> <Tether>
0.000

$$$$
VeraChem MOL file


 26 25  0  0  0  0  0  0  0  0999 V2000     
   20.4759   19.8095   25.7876 N   0  3  0  0  0  0  0  0  0  0  0  0
   20.4521   20.5007   26.5542 H   0  0  0  0  0  0  0  0  0  0  0  0
   21.0231   20.2592   25.0387 H   0  0  0  0  0  0  0  0  0  0  0  0
   19.0595   19.5339   25.3071 C   0  0  0  0  0  0  0  0  0  0  0  0
   18.5865   20.5003   25.1151 H   0  0  0  0  0  0  0  0  0  0  0  0
   18.5202   19.0532   26.1272 H   0  0  0  0  0  0  0  0  0  0  0  0
   18.9510   18.6615   24.0372 C   0  0  0  0  0  0  0  0  0  0  0  0
   19.3689   17.6655   24.2327 H   0  0  0  0  0  0  0  0  0  0  0  0
   17.8867   18.5108   23.8131 H   0  0  0  0  0  0  0  0  0  0  0  0
   19.6487   19.2968   22.8110 C   0  0  0  0  0  0  0  0  0  0  0  0
   20.7193   19.4136   23.0208 H   0  0  0  0  0  0  0  0  0  0  0  0
   19.2428   20.3034   22.6393 H   0  0  0  0  0  0  0  0  0  0  0  0
   19.4606   18.4391   21.5364 C   0  0  0  0  0  0  0  0  0  0  0  0
   19.9075   17.4469   21.6881 H   0  0  0  0  0  0  0  0  0  0  0  0
   18.3873   18.2722   21.3708 H   0  0  0  0  0  0  0  0  0  0  0  0
   20.0586   19.0858   20.2633 C   0  0  0  0  0  0  0  0  0  0  0  0
   19.5987   20.0696   20.0949 H   0  0  0  0  0  0  0  0  0  0  0  0
   19.7891   18.4685   19.3949 H   0  0  0  0  0  0  0  0  0  0  0  0
   21.5967   19.2322   20.3116 C   0  0  0  0  0  0  0  0  0  0  0  0
   21.9108   19.9405   21.0881 H   0  0  0  0  0  0  0  0  0  0  0  0
   21.9771   19.6059   19.3521 H   0  0  0  0  0  0  0  0  0  0  0  0
   22.0795   18.2666   20.5103 H   0  0  0  0  0  0  0  0  0  0  0  0
   21.1570   18.5312   26.2627 C   0  0  0  0  0  0  0  0  0  0  0  0
   21.2340   17.8315   25.4279 H   0  0  0  0  0  0  0  0  0  0  0  0
   22.1560   18.7743   26.6314 H   0  0  0  0  0  0  0  0  0  0  0  0
   20.5654   18.0868   27.0660 H   0  0  0  0  0  0  0  0  0  0  0  0
  1  2  1  0  0  0  0
  1  3  1  0  0  0  0
  1  4  1  0  0  0  0
  4  5  1  0  0  0  0
  4  6  1  0  0  0  0
  4  7  1  0  0  0  0
  7  8  1  0  0  0  0
  7  9  1  0  0  0  0
  7 10  1  0  0  0  0
 10 11  1  0  0  0  0
 10 12  1  0  0  0  0
 10 13  1  0  0  0  0
 13 14  1  0  0  0  0
 13 15  1  0  0  0  0
 13 16  1  0  0  0  0
 16 17  1  0  0  0  0
 16 18  1  0  0  0  0
 16 19  1  0  0  0  0
 19 20  1  0  0  0  0
 19 21  1  0  0  0  0
 19 22  1  0  0  0  0
  1 23  1  0  0  0  0
 23 24  1  0  0  0  0
 23 25  1  0  0  0  0
 23 26  1  0  0  0  0
M  END
> <VM2 Rank>
42

> <Conf_Id>
1049

> <Probability>
0.84

> <Sum Probability>
74.67

> <Delta G>
1.246

> <G>
76.712

> <E>
44.127

> <-TS>
32.586

> <U+W>
22.665

> <U>
72.301

> <W>
-49.636

> <W(PB)>
-51.894

> <W(SA)>
2.258

> <Valence>
2.588

> <Coulomb>
69.202

> <VdW>
0.511

> <VdW6>
-7.408

> <VdW12>
7.919

> <Bond>
0.221

> <Angle>
0.820

> <Pdih>
1.547

> <Idih>
0.000

> <Tether>
0.000

$$$$
VeraChem MOL file


 26 25  0  0  0  0  0  0  0  0999 V2000     
   20.2417   18.7817   26.0449 N   0  3  0  0  0  0  0  0  0  0  0  0
   21.2126   18.8822   25.7125 H   0  0  0  0  0  0  0  0  0  0  0  0
   20.0565   17.7666   26.0545 H   0  0  0  0  0  0  0  0  0  0  0  0
   19.2891   19.4769   25.0913 C   0  0  0  0  0  0  0  0  0  0  0  0
   19.5219   20.5447   25.0998 H   0  0  0  0  0  0  0  0  0  0  0  0
   18.2776   19.3453   25.4839 H   0  0  0  0  0  0  0  0  0  0  0  0
   19.3481   18.9445   23.6458 C   0  0  0  0  0  0  0  0  0  0  0  0
   19.1344   17.8674   23.6431 H   0  0  0  0  0  0  0  0  0  0  0  0
   18.5435   19.4258   23.0764 H   0  0  0  0  0  0  0  0  0  0  0  0
   20.7118   19.2187   22.9629 C   0  0  0  0  0  0  0  0  0  0  0  0
   21.5163   18.7705   23.5607 H   0  0  0  0  0  0  0  0  0  0  0  0
   20.9064   20.3002   22.9457 H   0  0  0  0  0  0  0  0  0  0  0  0
   20.8090   18.6522   21.5246 C   0  0  0  0  0  0  0  0  0  0  0  0
   21.8413   18.7794   21.1703 H   0  0  0  0  0  0  0  0  0  0  0  0
   20.6211   17.5697   21.5413 H   0  0  0  0  0  0  0  0  0  0  0  0
   19.8478   19.3334   20.5213 C   0  0  0  0  0  0  0  0  0  0  0  0
   19.9978   20.4219   20.5439 H   0  0  0  0  0  0  0  0  0  0  0  0
   18.8044   19.1495   20.8095 H   0  0  0  0  0  0  0  0  0  0  0  0
   20.0669   18.8171   19.0831 C   0  0  0  0  0  0  0  0  0  0  0  0
   19.3758   19.3078   18.3855 H   0  0  0  0  0  0  0  0  0  0  0  0
   19.8949   17.7346   19.0219 H   0  0  0  0  0  0  0  0  0  0  0  0
   21.0902   19.0205   18.7415 H   0  0  0  0  0  0  0  0  0  0  0  0
   20.0936   19.3656   27.4430 C   0  0  0  0  0  0  0  0  0  0  0  0
   19.0671   19.2193   27.7863 H   0  0  0  0  0  0  0  0  0  0  0  0
   20.7846   18.8568   28.1189 H   0  0  0  0  0  0  0  0  0  0  0  0
   20.3253   20.4325   27.4130 H   0  0  0  0  0  0  0  0  0  0  0  0
  1  2  1  0  0  0  0
  1  3  1  0  0  0  0
  1  4  1  0  0  0  0
  4  5  1  0  0  0  0
  4  6  1  0  0  0  0
  4  7  1  0  0  0  0
  7  8  1  0  0  0  0
  7  9  1  0  0  0  0
  7 10  1  0  0  0  0
 10 11  1  0  0  0  0
 10 12  1  0  0  0  0
 10 13  1  0  0  0  0
 13 14  1  0  0  0  0
 13 15  1  0  0  0  0
 13 16  1  0  0  0  0
 16 17  1  0  0  0  0
 16 18  1  0  0  0  0
 16 19  1  0  0  0  0
 19 20  1  0  0  0  0
 19 21  1  0  0  0  0
 19 22  1  0  0  0  0
  1 23  1  0  0  0  0
 23 24  1  0  0  0  0
 23 25  1  0  0  0  0
 23 26  1  0  0  0  0
M  END
> <VM2 Rank>
43

> <Conf_Id>
1554

> <Probability>
0.84

> <Sum Probability>
75.50

> <Delta G>
1.253

> <G>
76.719

> <E>
44.389

> <-TS>
32.330

> <U+W>
22.927

> <U>
71.903

> <W>
-48.976

> <W(PB)>
-51.297

> <W(SA)>
2.321

> <Valence>
2.409

> <Coulomb>
69.133

> <VdW>
0.360

> <VdW6>
-6.461

> <VdW12>
6.822

> <Bond>
0.187

> <Angle>
0.708

> <Pdih>
1.514

> <Idih>
0.000

> <Tether>
0.000

$$$$
VeraChem MOL file


 26 25  0  0  0  0  0  0  0  0999 V2000     
   19.0960   19.0192   25.8132 N   0  3  0  0  0  0  0  0  0  0  0  0
   18.4914   18.5524   26.5077 H   0  0  0  0  0  0  0  0  0  0  0  0
   18.4568   19.3261   25.0649 H   0  0  0  0  0  0  0  0  0  0  0  0
   20.1037   18.0215   25.2635 C   0  0  0  0  0  0  0  0  0  0  0  0
   19.5470   17.1341   24.9516 H   0  0  0  0  0  0  0  0  0  0  0  0
   20.7640   17.7321   26.0849 H   0  0  0  0  0  0  0  0  0  0  0  0
   20.9501   18.5261   24.0743 C   0  0  0  0  0  0  0  0  0  0  0  0
   21.5608   19.3822   24.3890 H   0  0  0  0  0  0  0  0  0  0  0  0
   21.6540   17.7326   23.7906 H   0  0  0  0  0  0  0  0  0  0  0  0
   20.0903   18.9106   22.8468 C   0  0  0  0  0  0  0  0  0  0  0  0
   19.4147   19.7356   23.1093 H   0  0  0  0  0  0  0  0  0  0  0  0
   19.4605   18.0555   22.5678 H   0  0  0  0  0  0  0  0  0  0  0  0
   20.9668   19.3344   21.6436 C   0  0  0  0  0  0  0  0  0  0  0  0
   21.6442   20.1400   21.9593 H   0  0  0  0  0  0  0  0  0  0  0  0
   21.6068   18.4955   21.3369 H   0  0  0  0  0  0  0  0  0  0  0  0
   20.1475   19.8302   20.4274 C   0  0  0  0  0  0  0  0  0  0  0  0
   20.8427   20.2063   19.6638 H   0  0  0  0  0  0  0  0  0  0  0  0
   19.5241   20.6858   20.7227 H   0  0  0  0  0  0  0  0  0  0  0  0
   19.2597   18.7338   19.7956 C   0  0  0  0  0  0  0  0  0  0  0  0
   18.4678   18.4103   20.4824 H   0  0  0  0  0  0  0  0  0  0  0  0
   19.8553   17.8545   19.5180 H   0  0  0  0  0  0  0  0  0  0  0  0
   18.7734   19.1100   18.8863 H   0  0  0  0  0  0  0  0  0  0  0  0
   19.7940   20.2140   26.4527 C   0  0  0  0  0  0  0  0  0  0  0  0
   20.3805   20.7375   25.6949 H   0  0  0  0  0  0  0  0  0  0  0  0
   19.0409   20.8891   26.8653 H   0  0  0  0  0  0  0  0  0  0  0  0
   20.4500   19.8610   27.2513 H   0  0  0  0  0  0  0  0  0  0  0  0
  1  2  1  0  0  0  0
  1  3  1  0  0  0  0
  1  4  1  0  0  0  0
  4  5  1  0  0  0  0
  4  6  1  0  0  0  0
  4  7  1  0  0  0  0
  7  8  1  0  0  0  0
  7  9  1  0  0  0  0
  7 10  1  0  0  0  0
 10 11  1  0  0  0  0
 10 12  1  0  0  0  0
 10 13  1  0  0  0  0
 13 14  1  0  0  0  0
 13 15  1  0  0  0  0
 13 16  1  0  0  0  0
 16 17  1  0  0  0  0
 16 18  1  0  0  0  0
 16 19  1  0  0  0  0
 19 20  1  0  0  0  0
 19 21  1  0  0  0  0
 19 22  1  0  0  0  0
  1 23  1  0  0  0  0
 23 24  1  0  0  0  0
 23 25  1  0  0  0  0
 23 26  1  0  0  0  0
M  END
> <VM2 Rank>
44

> <Conf_Id>
1848

> <Probability>
0.81

> <Sum Probability>
76.31

> <Delta G>
1.272

> <G>
76.738

> <E>
44.147

> <-TS>
32.591

> <U+W>
22.685

> <U>
72.183

> <W>
-49.498

> <W(PB)>
-51.756

> <W(SA)>
2.258

> <Valence>
2.592

> <Coulomb>
69.072

> <VdW>
0.519

> <VdW6>
-7.379

> <VdW12>
7.898

> <Bond>
0.219

> <Angle>
0.818

> <Pdih>
1.555

> <Idih>
0.000

> <Tether>
0.000

$$$$
VeraChem MOL file


 26 25  0  0  0  0  0  0  0  0999 V2000     
   20.4293   19.2255   26.0544 N   0  3  0  0  0  0  0  0  0  0  0  0
   21.3625   19.2919   25.6213 H   0  0  0  0  0  0  0  0  0  0  0  0
   20.6063   18.9348   27.0291 H   0  0  0  0  0  0  0  0  0  0  0  0
   19.6006   18.1631   25.3491 C   0  0  0  0  0  0  0  0  0  0  0  0
   18.6208   18.1327   25.8325 H   0  0  0  0  0  0  0  0  0  0  0  0
   20.0897   17.2009   25.5206 H   0  0  0  0  0  0  0  0  0  0  0  0
   19.4205   18.3706   23.8294 C   0  0  0  0  0  0  0  0  0  0  0  0
   18.7893   17.5597   23.4426 H   0  0  0  0  0  0  0  0  0  0  0  0
   18.8710   19.3030   23.6520 H   0  0  0  0  0  0  0  0  0  0  0  0
   20.7682   18.3815   23.0654 C   0  0  0  0  0  0  0  0  0  0  0  0
   21.3398   17.4831   23.3369 H   0  0  0  0  0  0  0  0  0  0  0  0
   21.3730   19.2417   23.3823 H   0  0  0  0  0  0  0  0  0  0  0  0
   20.6045   18.4130   21.5258 C   0  0  0  0  0  0  0  0  0  0  0  0
   21.5972   18.3029   21.0677 H   0  0  0  0  0  0  0  0  0  0  0  0
   20.0172   17.5436   21.1994 H   0  0  0  0  0  0  0  0  0  0  0  0
   19.9496   19.7125   21.0001 C   0  0  0  0  0  0  0  0  0  0  0  0
   20.5075   20.5848   21.3683 H   0  0  0  0  0  0  0  0  0  0  0  0
   18.9253   19.8040   21.3851 H   0  0  0  0  0  0  0  0  0  0  0  0
   19.9089   19.7458   19.4573 C   0  0  0  0  0  0  0  0  0  0  0  0
   19.4391   20.6720   19.1017 H   0  0  0  0  0  0  0  0  0  0  0  0
   19.3316   18.9011   19.0594 H   0  0  0  0  0  0  0  0  0  0  0  0
   20.9207   19.6979   19.0339 H   0  0  0  0  0  0  0  0  0  0  0  0
   19.7264   20.5780   26.0356 C   0  0  0  0  0  0  0  0  0  0  0  0
   18.7497   20.4813   26.5147 H   0  0  0  0  0  0  0  0  0  0  0  0
   20.3341   21.3041   26.5802 H   0  0  0  0  0  0  0  0  0  0  0  0
   19.6017   20.9056   25.0016 H   0  0  0  0  0  0  0  0  0  0  0  0
  1  2  1  0  0  0  0
  1  3  1  0  0  0  0
  1  4  1  0  0  0  0
  4  5  1  0  0  0  0
  4  6  1  0  0  0  0
  4  7  1  0  0  0  0
  7  8  1  0  0  0  0
  7  9  1  0  0  0  0
  7 10  1  0  0  0  0
 10 11  1  0  0  0  0
 10 12  1  0  0  0  0
 10 13  1  0  0  0  0
 13 14  1  0  0  0  0
 13 15  1  0  0  0  0
 13 16  1  0  0  0  0
 16 17  1  0  0  0  0
 16 18  1  0  0  0  0
 16 19  1  0  0  0  0
 19 20  1  0  0  0  0
 19 21  1  0  0  0  0
 19 22  1  0  0  0  0
  1 23  1  0  0  0  0
 23 24  1  0  0  0  0
 23 25  1  0  0  0  0
 23 26  1  0  0  0  0
M  END
> <VM2 Rank>
45

> <Conf_Id>
271

> <Probability>
0.78

> <Sum Probability>
77.09

> <Delta G>
1.293

> <G>
76.759

> <E>
44.168

> <-TS>
32.591

> <U+W>
22.706

> <U>
72.280

> <W>
-49.574

> <W(PB)>
-51.820

> <W(SA)>
2.246

> <Valence>
2.616

> <Coulomb>
69.198

> <VdW>
0.465

> <VdW6>
-7.468

> <VdW12>
7.934

> <Bond>
0.224

> <Angle>
0.811

> <Pdih>
1.582

> <Idih>
0.000

> <Tether>
0.000

$$$$
VeraChem MOL file


 26 25  0  0  0  0  0  0  0  0999 V2000     
   19.3180   19.6969   25.7465 N   0  3  0  0  0  0  0  0  0  0  0  0
   18.7487   20.0383   24.9580 H   0  0  0  0  0  0  0  0  0  0  0  0
   19.1545   20.3742   26.5083 H   0  0  0  0  0  0  0  0  0  0  0  0
   20.7913   19.7022   25.3687 C   0  0  0  0  0  0  0  0  0  0  0  0
   21.3539   19.3284   26.2279 H   0  0  0  0  0  0  0  0  0  0  0  0
   21.0819   20.7428   25.2041 H   0  0  0  0  0  0  0  0  0  0  0  0
   21.1546   18.8758   24.1154 C   0  0  0  0  0  0  0  0  0  0  0  0
   22.2411   18.9344   23.9677 H   0  0  0  0  0  0  0  0  0  0  0  0
   20.9235   17.8166   24.2878 H   0  0  0  0  0  0  0  0  0  0  0  0
   20.4355   19.3734   22.8391 C   0  0  0  0  0  0  0  0  0  0  0  0
   20.6510   20.4405   22.6896 H   0  0  0  0  0  0  0  0  0  0  0  0
   19.3504   19.2803   22.9723 H   0  0  0  0  0  0  0  0  0  0  0  0
   20.8744   18.5770   21.5866 C   0  0  0  0  0  0  0  0  0  0  0  0
   21.9687   18.6213   21.4978 H   0  0  0  0  0  0  0  0  0  0  0  0
   20.6177   17.5162   21.7132 H   0  0  0  0  0  0  0  0  0  0  0  0
   20.2537   19.1051   20.2704 C   0  0  0  0  0  0  0  0  0  0  0  0
   20.6975   18.5574   19.4272 H   0  0  0  0  0  0  0  0  0  0  0  0
   20.5259   20.1603   20.1280 H   0  0  0  0  0  0  0  0  0  0  0  0
   18.7168   18.9516   20.2095 C   0  0  0  0  0  0  0  0  0  0  0  0
   18.4166   17.9096   20.3803 H   0  0  0  0  0  0  0  0  0  0  0  0
   18.3397   19.2516   19.2232 H   0  0  0  0  0  0  0  0  0  0  0  0
   18.2182   19.5805   20.9573 H   0  0  0  0  0  0  0  0  0  0  0  0
   18.8637   18.3081   26.1808 C   0  0  0  0  0  0  0  0  0  0  0  0
   19.4718   17.9800   27.0266 H   0  0  0  0  0  0  0  0  0  0  0  0
   17.8133   18.3520   26.4768 H   0  0  0  0  0  0  0  0  0  0  0  0
   18.9815   17.6127   25.3473 H   0  0  0  0  0  0  0  0  0  0  0  0
  1  2  1  0  0  0  0
  1  3  1  0  0  0  0
  1  4  1  0  0  0  0
  4  5  1  0  0  0  0
  4  6  1  0  0  0  0
  4  7  1  0  0  0  0
  7  8  1  0  0  0  0
  7  9  1  0  0  0  0
  7 10  1  0  0  0  0
 10 11  1  0  0  0  0
 10 12  1  0  0  0  0
 10 13  1  0  0  0  0
 13 14  1  0  0  0  0
 13 15  1  0  0  0  0
 13 16  1  0  0  0  0
 16 17  1  0  0  0  0
 16 18  1  0  0  0  0
 16 19  1  0  0  0  0
 19 20  1  0  0  0  0
 19 21  1  0  0  0  0
 19 22  1  0  0  0  0
  1 23  1  0  0  0  0
 23 24  1  0  0  0  0
 23 25  1  0  0  0  0
 23 26  1  0  0  0  0
M  END
> <VM2 Rank>
46

> <Conf_Id>
1563

> <Probability>
0.78

> <Sum Probability>
77.87

> <Delta G>
1.293

> <G>
76.759

> <E>
44.174

> <-TS>
32.586

> <U+W>
22.712

> <U>
72.301

> <W>
-49.589

> <W(PB)>
-51.856

> <W(SA)>
2.267

> <Valence>
2.588

> <Coulomb>
69.202

> <VdW>
0.511

> <VdW6>
-7.409

> <VdW12>
7.919

> <Bond>
0.221

> <Angle>
0.820

> <Pdih>
1.547

> <Idih>
0.000

> <Tether>
0.000

$$$$
VeraChem MOL file


 26 25  0  0  0  0  0  0  0  0999 V2000     
   19.7799   18.4758   26.0479 N   0  3  0  0  0  0  0  0  0  0  0  0
   20.6692   17.9775   26.2083 H   0  0  0  0  0  0  0  0  0  0  0  0
   19.1069   17.7498   25.7567 H   0  0  0  0  0  0  0  0  0  0  0  0
   19.9482   19.5046   24.9478 C   0  0  0  0  0  0  0  0  0  0  0  0
   20.6722   20.2476   25.2917 H   0  0  0  0  0  0  0  0  0  0  0  0
   18.9858   20.0023   24.8041 H   0  0  0  0  0  0  0  0  0  0  0  0
   20.4217   18.8984   23.6144 C   0  0  0  0  0  0  0  0  0  0  0  0
   21.3808   18.3857   23.7663 H   0  0  0  0  0  0  0  0  0  0  0  0
   19.6970   18.1415   23.2886 H   0  0  0  0  0  0  0  0  0  0  0  0
   20.5791   19.9859   22.5258 C   0  0  0  0  0  0  0  0  0  0  0  0
   21.2469   20.7732   22.9023 H   0  0  0  0  0  0  0  0  0  0  0  0
   19.6117   20.4731   22.3447 H   0  0  0  0  0  0  0  0  0  0  0  0
   21.1602   19.4497   21.1917 C   0  0  0  0  0  0  0  0  0  0  0  0
   21.2755   20.2910   20.4944 H   0  0  0  0  0  0  0  0  0  0  0  0
   22.1749   19.0683   21.3715 H   0  0  0  0  0  0  0  0  0  0  0  0
   20.3247   18.3401   20.5031 C   0  0  0  0  0  0  0  0  0  0  0  0
   20.2986   17.4393   21.1307 H   0  0  0  0  0  0  0  0  0  0  0  0
   20.8343   18.0440   19.5756 H   0  0  0  0  0  0  0  0  0  0  0  0
   18.8830   18.7790   20.1599 C   0  0  0  0  0  0  0  0  0  0  0  0
   18.2950   18.9730   21.0655 H   0  0  0  0  0  0  0  0  0  0  0  0
   18.3666   17.9937   19.5930 H   0  0  0  0  0  0  0  0  0  0  0  0
   18.8830   19.6901   19.5476 H   0  0  0  0  0  0  0  0  0  0  0  0
   19.3112   19.1565   27.3265 C   0  0  0  0  0  0  0  0  0  0  0  0
   18.3537   19.6484   27.1412 H   0  0  0  0  0  0  0  0  0  0  0  0
   19.1941   18.4048   28.1103 H   0  0  0  0  0  0  0  0  0  0  0  0
   20.0542   19.8962   27.6327 H   0  0  0  0  0  0  0  0  0  0  0  0
  1  2  1  0  0  0  0
  1  3  1  0  0  0  0
  1  4  1  0  0  0  0
  4  5  1  0  0  0  0
  4  6  1  0  0  0  0
  4  7  1  0  0  0  0
  7  8  1  0  0  0  0
  7  9  1  0  0  0  0
  7 10  1  0  0  0  0
 10 11  1  0  0  0  0
 10 12  1  0  0  0  0
 10 13  1  0  0  0  0
 13 14  1  0  0  0  0
 13 15  1  0  0  0  0
 13 16  1  0  0  0  0
 16 17  1  0  0  0  0
 16 18  1  0  0  0  0
 16 19  1  0  0  0  0
 19 20  1  0  0  0  0
 19 21  1  0  0  0  0
 19 22  1  0  0  0  0
  1 23  1  0  0  0  0
 23 24  1  0  0  0  0
 23 25  1  0  0  0  0
 23 26  1  0  0  0  0
M  END
> <VM2 Rank>
47

> <Conf_Id>
1050

> <Probability>
0.76

> <Sum Probability>
78.63

> <Delta G>
1.310

> <G>
76.776

> <E>
44.188

> <-TS>
32.588

> <U+W>
22.726

> <U>
71.870

> <W>
-49.144

> <W(PB)>
-51.404

> <W(SA)>
2.260

> <Valence>
2.682

> <Coulomb>
68.933

> <VdW>
0.255

> <VdW6>
-6.833

> <VdW12>
7.088

> <Bond>
0.205

> <Angle>
1.003

> <Pdih>
1.473

> <Idih>
0.000

> <Tether>
0.000

$$$$
VeraChem MOL file


 26 25  0  0  0  0  0  0  0  0999 V2000     
   19.6734   18.4755   26.2511 N   0  3  0  0  0  0  0  0  0  0  0  0
   20.5161   18.0099   26.6221 H   0  0  0  0  0  0  0  0  0  0  0  0
   18.8825   17.9075   26.5941 H   0  0  0  0  0  0  0  0  0  0  0  0
   19.6902   18.4599   24.7319 C   0  0  0  0  0  0  0  0  0  0  0  0
   18.8050   18.9965   24.3824 H   0  0  0  0  0  0  0  0  0  0  0  0
   19.6019   17.4172   24.4164 H   0  0  0  0  0  0  0  0  0  0  0  0
   20.9598   19.0688   24.0996 C   0  0  0  0  0  0  0  0  0  0  0  0
   21.0457   20.1278   24.3754 H   0  0  0  0  0  0  0  0  0  0  0  0
   21.8433   18.5641   24.5122 H   0  0  0  0  0  0  0  0  0  0  0  0
   20.9779   18.9353   22.5587 C   0  0  0  0  0  0  0  0  0  0  0  0
   20.9319   17.8716   22.2900 H   0  0  0  0  0  0  0  0  0  0  0  0
   21.9396   19.3109   22.1830 H   0  0  0  0  0  0  0  0  0  0  0  0
   19.8240   19.7087   21.8714 C   0  0  0  0  0  0  0  0  0  0  0  0
   18.8556   19.2805   22.1630 H   0  0  0  0  0  0  0  0  0  0  0  0
   19.8242   20.7472   22.2303 H   0  0  0  0  0  0  0  0  0  0  0  0
   19.9287   19.7227   20.3271 C   0  0  0  0  0  0  0  0  0  0  0  0
   20.8821   20.1770   20.0229 H   0  0  0  0  0  0  0  0  0  0  0  0
   19.1378   20.3717   19.9257 H   0  0  0  0  0  0  0  0  0  0  0  0
   19.7943   18.3207   19.6902 C   0  0  0  0  0  0  0  0  0  0  0  0
   20.6314   17.6690   19.9693 H   0  0  0  0  0  0  0  0  0  0  0  0
   19.7859   18.3955   18.5951 H   0  0  0  0  0  0  0  0  0  0  0  0
   18.8606   17.8338   20.0002 H   0  0  0  0  0  0  0  0  0  0  0  0
   19.5596   19.8983   26.7869 C   0  0  0  0  0  0  0  0  0  0  0  0
   18.6506   20.3582   26.3932 H   0  0  0  0  0  0  0  0  0  0  0  0
   19.5141   19.8665   27.8778 H   0  0  0  0  0  0  0  0  0  0  0  0
   20.4325   20.4740   26.4729 H   0  0  0  0  0  0  0  0  0  0  0  0
  1  2  1  0  0  0  0
  1  3  1  0  0  0  0
  1  4  1  0  0  0  0
  4  5  1  0  0  0  0
  4  6  1  0  0  0  0
  4  7  1  0  0  0  0
  7  8  1  0  0  0  0
  7  9  1  0  0  0  0
  7 10  1  0  0  0  0
 10 11  1  0  0  0  0
 10 12  1  0  0  0  0
 10 13  1  0  0  0  0
 13 14  1  0  0  0  0
 13 15  1  0  0  0  0
 13 16  1  0  0  0  0
 16 17  1  0  0  0  0
 16 18  1  0  0  0  0
 16 19  1  0  0  0  0
 19 20  1  0  0  0  0
 19 21  1  0  0  0  0
 19 22  1  0  0  0  0
  1 23  1  0  0  0  0
 23 24  1  0  0  0  0
 23 25  1  0  0  0  0
 23 26  1  0  0  0  0
M  END
> <VM2 Rank>
48

> <Conf_Id>
175

> <Probability>
0.75

> <Sum Probability>
79.39

> <Delta G>
1.315

> <G>
76.781

> <E>
44.237

> <-TS>
32.544

> <U+W>
22.775

> <U>
72.114

> <W>
-49.339

> <W(PB)>
-51.571

> <W(SA)>
2.232

> <Valence>
2.783

> <Coulomb>
68.782

> <VdW>
0.550

> <VdW6>
-7.241

> <VdW12>
7.791

> <Bond>
0.221

> <Angle>
0.803

> <Pdih>
1.759

> <Idih>
0.000

> <Tether>
0.000

$$$$
VeraChem MOL file


 26 25  0  0  0  0  0  0  0  0999 V2000     
   20.2429   18.5230   26.0643 N   0  3  0  0  0  0  0  0  0  0  0  0
   21.0669   17.9493   25.8262 H   0  0  0  0  0  0  0  0  0  0  0  0
   19.4631   17.8548   26.1656 H   0  0  0  0  0  0  0  0  0  0  0  0
   19.9485   19.5046   24.9478 C   0  0  0  0  0  0  0  0  0  0  0  0
   20.7986   20.1869   24.8684 H   0  0  0  0  0  0  0  0  0  0  0  0
   19.0675   20.0842   25.2348 H   0  0  0  0  0  0  0  0  0  0  0  0
   19.7013   18.8250   23.5889 C   0  0  0  0  0  0  0  0  0  0  0  0
   20.5845   18.2318   23.3201 H   0  0  0  0  0  0  0  0  0  0  0  0
   18.8567   18.1288   23.6768 H   0  0  0  0  0  0  0  0  0  0  0  0
   19.4049   19.8663   22.4842 C   0  0  0  0  0  0  0  0  0  0  0  0
   20.2648   20.5395   22.3679 H   0  0  0  0  0  0  0  0  0  0  0  0
   18.5676   20.5004   22.8073 H   0  0  0  0  0  0  0  0  0  0  0  0
   19.0386   19.2337   21.1165 C   0  0  0  0  0  0  0  0  0  0  0  0
   18.1115   18.6546   21.2275 H   0  0  0  0  0  0  0  0  0  0  0  0
   18.8054   20.0395   20.4069 H   0  0  0  0  0  0  0  0  0  0  0  0
   20.1265   18.3199   20.4961 C   0  0  0  0  0  0  0  0  0  0  0  0
   19.7532   17.9339   19.5373 H   0  0  0  0  0  0  0  0  0  0  0  0
   20.2895   17.4384   21.1305 H   0  0  0  0  0  0  0  0  0  0  0  0
   21.4708   19.0426   20.2515 C   0  0  0  0  0  0  0  0  0  0  0  0
   21.3302   19.9393   19.6342 H   0  0  0  0  0  0  0  0  0  0  0  0
   22.1731   18.3813   19.7278 H   0  0  0  0  0  0  0  0  0  0  0  0
   21.9428   19.3445   21.1947 H   0  0  0  0  0  0  0  0  0  0  0  0
   20.4744   19.2750   27.3677 C   0  0  0  0  0  0  0  0  0  0  0  0
   20.6851   18.5567   28.1631 H   0  0  0  0  0  0  0  0  0  0  0  0
   21.3238   19.9508   27.2464 H   0  0  0  0  0  0  0  0  0  0  0  0
   19.5782   19.8478   27.6159 H   0  0  0  0  0  0  0  0  0  0  0  0
  1  2  1  0  0  0  0
  1  3  1  0  0  0  0
  1  4  1  0  0  0  0
  4  5  1  0  0  0  0
  4  6  1  0  0  0  0
  4  7  1  0  0  0  0
  7  8  1  0  0  0  0
  7  9  1  0  0  0  0
  7 10  1  0  0  0  0
 10 11  1  0  0  0  0
 10 12  1  0  0  0  0
 10 13  1  0  0  0  0
 13 14  1  0  0  0  0
 13 15  1  0  0  0  0
 13 16  1  0  0  0  0
 16 17  1  0  0  0  0
 16 18  1  0  0  0  0
 16 19  1  0  0  0  0
 19 20  1  0  0  0  0
 19 21  1  0  0  0  0
 19 22  1  0  0  0  0
  1 23  1  0  0  0  0
 23 24  1  0  0  0  0
 23 25  1  0  0  0  0
 23 26  1  0  0  0  0
M  END
> <VM2 Rank>
49

> <Conf_Id>
1839

> <Probability>
0.73

> <Sum Probability>
80.11

> <Delta G>
1.336

> <G>
76.802

> <E>
44.214

> <-TS>
32.588

> <U+W>
22.752

> <U>
71.870

> <W>
-49.118

> <W(PB)>
-51.409

> <W(SA)>
2.290

> <Valence>
2.682

> <Coulomb>
68.933

> <VdW>
0.255

> <VdW6>
-6.833

> <VdW12>
7.088

> <Bond>
0.205

> <Angle>
1.003

> <Pdih>
1.473

> <Idih>
0.000

> <Tether>
0.000

$$$$
VeraChem MOL file


 26 25  0  0  0  0  0  0  0  0999 V2000     
   19.4261   19.0866   26.1424 N   0  3  0  0  0  0  0  0  0  0  0  0
   18.7682   18.4124   25.7237 H   0  0  0  0  0  0  0  0  0  0  0  0
   18.9203   19.4895   26.9472 H   0  0  0  0  0  0  0  0  0  0  0  0
   19.7535   20.1871   25.1449 C   0  0  0  0  0  0  0  0  0  0  0  0
   20.4571   20.8701   25.6274 H   0  0  0  0  0  0  0  0  0  0  0  0
   18.8296   20.7382   24.9519 H   0  0  0  0  0  0  0  0  0  0  0  0
   20.3418   19.7078   23.7994 C   0  0  0  0  0  0  0  0  0  0  0  0
   20.5755   20.5966   23.2008 H   0  0  0  0  0  0  0  0  0  0  0  0
   21.2947   19.1915   23.9726 H   0  0  0  0  0  0  0  0  0  0  0  0
   19.3734   18.7861   23.0161 C   0  0  0  0  0  0  0  0  0  0  0  0
   18.4307   19.3168   22.8233 H   0  0  0  0  0  0  0  0  0  0  0  0
   19.1177   17.9170   23.6365 H   0  0  0  0  0  0  0  0  0  0  0  0
   19.9586   18.2661   21.6796 C   0  0  0  0  0  0  0  0  0  0  0  0
   20.8983   17.7303   21.8725 H   0  0  0  0  0  0  0  0  0  0  0  0
   19.2631   17.5257   21.2609 H   0  0  0  0  0  0  0  0  0  0  0  0
   20.1975   19.3782   20.6305 C   0  0  0  0  0  0  0  0  0  0  0  0
   20.9530   20.0875   20.9934 H   0  0  0  0  0  0  0  0  0  0  0  0
   19.2712   19.9494   20.4774 H   0  0  0  0  0  0  0  0  0  0  0  0
   20.6675   18.7954   19.2805 C   0  0  0  0  0  0  0  0  0  0  0  0
   21.6089   18.2425   19.3956 H   0  0  0  0  0  0  0  0  0  0  0  0
   20.8350   19.5971   18.5495 H   0  0  0  0  0  0  0  0  0  0  0  0
   19.9178   18.1108   18.8628 H   0  0  0  0  0  0  0  0  0  0  0  0
   20.6896   18.3827   26.6236 C   0  0  0  0  0  0  0  0  0  0  0  0
   21.3589   19.1172   27.0768 H   0  0  0  0  0  0  0  0  0  0  0  0
   20.4177   17.6260   27.3628 H   0  0  0  0  0  0  0  0  0  0  0  0
   21.1828   17.9056   25.7743 H   0  0  0  0  0  0  0  0  0  0  0  0
  1  2  1  0  0  0  0
  1  3  1  0  0  0  0
  1  4  1  0  0  0  0
  4  5  1  0  0  0  0
  4  6  1  0  0  0  0
  4  7  1  0  0  0  0
  7  8  1  0  0  0  0
  7  9  1  0  0  0  0
  7 10  1  0  0  0  0
 10 11  1  0  0  0  0
 10 12  1  0  0  0  0
 10 13  1  0  0  0  0
 13 14  1  0  0  0  0
 13 15  1  0  0  0  0
 13 16  1  0  0  0  0
 16 17  1  0  0  0  0
 16 18  1  0  0  0  0
 16 19  1  0  0  0  0
 19 20  1  0  0  0  0
 19 21  1  0  0  0  0
 19 22  1  0  0  0  0
  1 23  1  0  0  0  0
 23 24  1  0  0  0  0
 23 25  1  0  0  0  0
 23 26  1  0  0  0  0
M  END
> <VM2 Rank>
50

> <Conf_Id>
548

> <Probability>
0.72

> <Sum Probability>
80.84

> <Delta G>
1.337

> <G>
76.803

> <E>
44.255

> <-TS>
32.549

> <U+W>
22.793

> <U>
72.239

> <W>
-49.446

> <W(PB)>
-51.687

> <W(SA)>
2.241

> <Valence>
2.659

> <Coulomb>
69.025

> <VdW>
0.555

> <VdW6>
-7.358

> <VdW12>
7.913

> <Bond>
0.229

> <Angle>
0.883

> <Pdih>
1.546

> <Idih>
0.000

> <Tether>
0.000

$$$$
VeraChem MOL file


 26 25  0  0  0  0  0  0  0  0999 V2000     
   19.6022   18.8190   26.0508 N   0  3  0  0  0  0  0  0  0  0  0  0
   20.4004   18.9733   26.6859 H   0  0  0  0  0  0  0  0  0  0  0  0
   19.0452   18.0742   26.4990 H   0  0  0  0  0  0  0  0  0  0  0  0
   20.0938   18.3405   24.6952 C   0  0  0  0  0  0  0  0  0  0  0  0
   19.2238   18.2360   24.0425 H   0  0  0  0  0  0  0  0  0  0  0  0
   20.5325   17.3498   24.8383 H   0  0  0  0  0  0  0  0  0  0  0  0
   21.1405   19.2610   24.0326 C   0  0  0  0  0  0  0  0  0  0  0  0
   20.7147   20.2584   23.8680 H   0  0  0  0  0  0  0  0  0  0  0  0
   21.9844   19.3980   24.7214 H   0  0  0  0  0  0  0  0  0  0  0  0
   21.6742   18.6914   22.6945 C   0  0  0  0  0  0  0  0  0  0  0  0
   22.2239   17.7618   22.8975 H   0  0  0  0  0  0  0  0  0  0  0  0
   22.4105   19.3921   22.2771 H   0  0  0  0  0  0  0  0  0  0  0  0
   20.5856   18.4027   21.6282 C   0  0  0  0  0  0  0  0  0  0  0  0
   21.0764   17.9894   20.7361 H   0  0  0  0  0  0  0  0  0  0  0  0
   19.9054   17.6191   21.9881 H   0  0  0  0  0  0  0  0  0  0  0  0
   19.7704   19.6527   21.2198 C   0  0  0  0  0  0  0  0  0  0  0  0
   20.4529   20.4526   20.9002 H   0  0  0  0  0  0  0  0  0  0  0  0
   19.2096   20.0376   22.0820 H   0  0  0  0  0  0  0  0  0  0  0  0
   18.7794   19.3387   20.0788 C   0  0  0  0  0  0  0  0  0  0  0  0
   18.0639   18.5625   20.3800 H   0  0  0  0  0  0  0  0  0  0  0  0
   19.3070   18.9880   19.1822 H   0  0  0  0  0  0  0  0  0  0  0  0
   18.2082   20.2348   19.8039 H   0  0  0  0  0  0  0  0  0  0  0  0
   18.7619   20.0840   25.9171 C   0  0  0  0  0  0  0  0  0  0  0  0
   17.9166   19.8849   25.2548 H   0  0  0  0  0  0  0  0  0  0  0  0
   18.3962   20.3756   26.9041 H   0  0  0  0  0  0  0  0  0  0  0  0
   19.3771   20.8851   25.5027 H   0  0  0  0  0  0  0  0  0  0  0  0
  1  2  1  0  0  0  0
  1  3  1  0  0  0  0
  1  4  1  0  0  0  0
  4  5  1  0  0  0  0
  4  6  1  0  0  0  0
  4  7  1  0  0  0  0
  7  8  1  0  0  0  0
  7  9  1  0  0  0  0
  7 10  1  0  0  0  0
 10 11  1  0  0  0  0
 10 12  1  0  0  0  0
 10 13  1  0  0  0  0
 13 14  1  0  0  0  0
 13 15  1  0  0  0  0
 13 16  1  0  0  0  0
 16 17  1  0  0  0  0
 16 18  1  0  0  0  0
 16 19  1  0  0  0  0
 19 20  1  0  0  0  0
 19 21  1  0  0  0  0
 19 22  1  0  0  0  0
  1 23  1  0  0  0  0
 23 24  1  0  0  0  0
 23 25  1  0  0  0  0
 23 26  1  0  0  0  0
M  END
> <VM2 Rank>
51

> <Conf_Id>
460

> <Probability>
0.71

> <Sum Probability>
81.55

> <Delta G>
1.347

> <G>
76.813

> <E>
44.143

> <-TS>
32.670

> <U+W>
22.681

> <U>
72.352

> <W>
-49.671

> <W(PB)>
-51.906

> <W(SA)>
2.236

> <Valence>
2.742

> <Coulomb>
69.270

> <VdW>
0.339

> <VdW6>
-7.703

> <VdW12>
8.042

> <Bond>
0.229

> <Angle>
0.954

> <Pdih>
1.560

> <Idih>
0.000

> <Tether>
0.000

$$$$
VeraChem MOL file


 26 25  0  0  0  0  0  0  0  0999 V2000     
   20.4593   19.1891   26.1791 N   0  3  0  0  0  0  0  0  0  0  0  0
   20.8184   19.6780   27.0146 H   0  0  0  0  0  0  0  0  0  0  0  0
   21.2645   18.6602   25.8123 H   0  0  0  0  0  0  0  0  0  0  0  0
   19.9929   20.2108   25.1534 C   0  0  0  0  0  0  0  0  0  0  0  0
   20.8017   20.9341   25.0220 H   0  0  0  0  0  0  0  0  0  0  0  0
   19.1367   20.7389   25.5806 H   0  0  0  0  0  0  0  0  0  0  0  0
   19.6063   19.6347   23.7733 C   0  0  0  0  0  0  0  0  0  0  0  0
   18.7638   18.9398   23.8827 H   0  0  0  0  0  0  0  0  0  0  0  0
   19.2449   20.4644   23.1536 H   0  0  0  0  0  0  0  0  0  0  0  0
   20.7896   18.9270   23.0662 C   0  0  0  0  0  0  0  0  0  0  0  0
   21.1672   18.1209   23.7091 H   0  0  0  0  0  0  0  0  0  0  0  0
   21.6206   19.6342   22.9364 H   0  0  0  0  0  0  0  0  0  0  0  0
   20.4134   18.3114   21.6957 C   0  0  0  0  0  0  0  0  0  0  0  0
   21.2688   17.7254   21.3319 H   0  0  0  0  0  0  0  0  0  0  0  0
   19.5865   17.5996   21.8260 H   0  0  0  0  0  0  0  0  0  0  0  0
   20.0343   19.3619   20.6247 C   0  0  0  0  0  0  0  0  0  0  0  0
   20.8382   20.1056   20.5331 H   0  0  0  0  0  0  0  0  0  0  0  0
   19.1303   19.9059   20.9288 H   0  0  0  0  0  0  0  0  0  0  0  0
   19.7842   18.7076   19.2491 C   0  0  0  0  0  0  0  0  0  0  0  0
   18.9646   17.9791   19.3017 H   0  0  0  0  0  0  0  0  0  0  0  0
   20.6816   18.1871   18.8898 H   0  0  0  0  0  0  0  0  0  0  0  0
   19.5136   19.4656   18.5026 H   0  0  0  0  0  0  0  0  0  0  0  0
   19.3280   18.2475   26.5754 C   0  0  0  0  0  0  0  0  0  0  0  0
   18.4975   18.8331   26.9755 H   0  0  0  0  0  0  0  0  0  0  0  0
   18.9989   17.6888   25.6969 H   0  0  0  0  0  0  0  0  0  0  0  0
   19.6908   17.5537   27.3371 H   0  0  0  0  0  0  0  0  0  0  0  0
  1  2  1  0  0  0  0
  1  3  1  0  0  0  0
  1  4  1  0  0  0  0
  4  5  1  0  0  0  0
  4  6  1  0  0  0  0
  4  7  1  0  0  0  0
  7  8  1  0  0  0  0
  7  9  1  0  0  0  0
  7 10  1  0  0  0  0
 10 11  1  0  0  0  0
 10 12  1  0  0  0  0
 10 13  1  0  0  0  0
 13 14  1  0  0  0  0
 13 15  1  0  0  0  0
 13 16  1  0  0  0  0
 16 17  1  0  0  0  0
 16 18  1  0  0  0  0
 16 19  1  0  0  0  0
 19 20  1  0  0  0  0
 19 21  1  0  0  0  0
 19 22  1  0  0  0  0
  1 23  1  0  0  0  0
 23 24  1  0  0  0  0
 23 25  1  0  0  0  0
 23 26  1  0  0  0  0
M  END
> <VM2 Rank>
52

> <Conf_Id>
1591

> <Probability>
0.71

> <Sum Probability>
82.26

> <Delta G>
1.350

> <G>
76.816

> <E>
44.267

> <-TS>
32.549

> <U+W>
22.806

> <U>
72.239

> <W>
-49.432

> <W(PB)>
-51.686

> <W(SA)>
2.253

> <Valence>
2.659

> <Coulomb>
69.025

> <VdW>
0.555

> <VdW6>
-7.357

> <VdW12>
7.913

> <Bond>
0.229

> <Angle>
0.883

> <Pdih>
1.546

> <Idih>
0.000

> <Tether>
0.000

$$$$
VeraChem MOL file


 26 25  0  0  0  0  0  0  0  0999 V2000     
   20.3335   18.5432   26.2746 N   0  3  0  0  0  0  0  0  0  0  0  0
   21.1969   18.1444   26.6762 H   0  0  0  0  0  0  0  0  0  0  0  0
   19.5785   17.9142   26.5890 H   0  0  0  0  0  0  0  0  0  0  0  0
   20.4267   18.5351   24.7580 C   0  0  0  0  0  0  0  0  0  0  0  0
   20.7459   17.5341   24.4571 H   0  0  0  0  0  0  0  0  0  0  0  0
   21.2072   19.2422   24.4674 H   0  0  0  0  0  0  0  0  0  0  0  0
   19.1075   18.8790   24.0340 C   0  0  0  0  0  0  0  0  0  0  0  0
   18.3178   18.2030   24.3873 H   0  0  0  0  0  0  0  0  0  0  0  0
   18.7899   19.8967   24.2955 H   0  0  0  0  0  0  0  0  0  0  0  0
   19.2248   18.7556   22.4966 C   0  0  0  0  0  0  0  0  0  0  0  0
   18.2356   18.9311   22.0518 H   0  0  0  0  0  0  0  0  0  0  0  0
   19.5042   17.7252   22.2394 H   0  0  0  0  0  0  0  0  0  0  0  0
   20.2431   19.7518   21.8862 C   0  0  0  0  0  0  0  0  0  0  0  0
   20.0072   20.7661   22.2366 H   0  0  0  0  0  0  0  0  0  0  0  0
   21.2554   19.5269   22.2481 H   0  0  0  0  0  0  0  0  0  0  0  0
   20.2462   19.7553   20.3383 C   0  0  0  0  0  0  0  0  0  0  0  0
   20.9152   20.5541   19.9886 H   0  0  0  0  0  0  0  0  0  0  0  0
   19.2442   20.0087   19.9648 H   0  0  0  0  0  0  0  0  0  0  0  0
   20.7067   18.4143   19.7227 C   0  0  0  0  0  0  0  0  0  0  0  0
   21.6958   18.1248   20.1008 H   0  0  0  0  0  0  0  0  0  0  0  0
   20.7765   18.4969   18.6303 H   0  0  0  0  0  0  0  0  0  0  0  0
   20.0019   17.6042   19.9472 H   0  0  0  0  0  0  0  0  0  0  0  0
   20.1195   19.9558   26.8065 C   0  0  0  0  0  0  0  0  0  0  0  0
   20.0940   19.9262   27.8981 H   0  0  0  0  0  0  0  0  0  0  0  0
   20.9420   20.5928   26.4741 H   0  0  0  0  0  0  0  0  0  0  0  0
   19.1724   20.3453   26.4280 H   0  0  0  0  0  0  0  0  0  0  0  0
  1  2  1  0  0  0  0
  1  3  1  0  0  0  0
  1  4  1  0  0  0  0
  4  5  1  0  0  0  0
  4  6  1  0  0  0  0
  4  7  1  0  0  0  0
  7  8  1  0  0  0  0
  7  9  1  0  0  0  0
  7 10  1  0  0  0  0
 10 11  1  0  0  0  0
 10 12  1  0  0  0  0
 10 13  1  0  0  0  0
 13 14  1  0  0  0  0
 13 15  1  0  0  0  0
 13 16  1  0  0  0  0
 16 17  1  0  0  0  0
 16 18  1  0  0  0  0
 16 19  1  0  0  0  0
 19 20  1  0  0  0  0
 19 21  1  0  0  0  0
 19 22  1  0  0  0  0
  1 23  1  0  0  0  0
 23 24  1  0  0  0  0
 23 25  1  0  0  0  0
 23 26  1  0  0  0  0
M  END
> <VM2 Rank>
53

> <Conf_Id>
1022

> <Probability>
0.69

> <Sum Probability>
82.95

> <Delta G>
1.363

> <G>
76.829

> <E>
44.285

> <-TS>
32.544

> <U+W>
22.823

> <U>
72.114

> <W>
-49.291

> <W(PB)>
-51.567

> <W(SA)>
2.276

> <Valence>
2.783

> <Coulomb>
68.782

> <VdW>
0.549

> <VdW6>
-7.241

> <VdW12>
7.790

> <Bond>
0.221

> <Angle>
0.803

> <Pdih>
1.759

> <Idih>
0.000

> <Tether>
0.000

$$$$
VeraChem MOL file


 26 25  0  0  0  0  0  0  0  0999 V2000     
   20.8922   18.8790   25.4922 N   0  3  0  0  0  0  0  0  0  0  0  0
   21.3794   19.3714   24.7287 H   0  0  0  0  0  0  0  0  0  0  0  0
   21.5842   18.2116   25.8684 H   0  0  0  0  0  0  0  0  0  0  0  0
   19.6971   18.1181   24.9402 C   0  0  0  0  0  0  0  0  0  0  0  0
   19.1987   17.6282   25.7805 H   0  0  0  0  0  0  0  0  0  0  0  0
   20.0834   17.3379   24.2799 H   0  0  0  0  0  0  0  0  0  0  0  0
   18.6747   18.9772   24.1621 C   0  0  0  0  0  0  0  0  0  0  0  0
   17.8640   18.3247   23.8118 H   0  0  0  0  0  0  0  0  0  0  0  0
   18.2076   19.6972   24.8463 H   0  0  0  0  0  0  0  0  0  0  0  0
   19.2774   19.7362   22.9533 C   0  0  0  0  0  0  0  0  0  0  0  0
   20.0276   20.4580   23.3031 H   0  0  0  0  0  0  0  0  0  0  0  0
   18.4817   20.3292   22.4815 H   0  0  0  0  0  0  0  0  0  0  0  0
   19.9052   18.7973   21.8951 C   0  0  0  0  0  0  0  0  0  0  0  0
   20.7312   18.2267   22.3400 H   0  0  0  0  0  0  0  0  0  0  0  0
   19.1557   18.0653   21.5637 H   0  0  0  0  0  0  0  0  0  0  0  0
   20.4328   19.5815   20.6729 C   0  0  0  0  0  0  0  0  0  0  0  0
   21.1816   20.3171   20.9987 H   0  0  0  0  0  0  0  0  0  0  0  0
   19.6115   20.1484   20.2125 H   0  0  0  0  0  0  0  0  0  0  0  0
   21.0608   18.6442   19.6193 C   0  0  0  0  0  0  0  0  0  0  0  0
   21.9087   18.0883   20.0403 H   0  0  0  0  0  0  0  0  0  0  0  0
   21.4288   19.2189   18.7594 H   0  0  0  0  0  0  0  0  0  0  0  0
   20.3259   17.9177   19.2490 H   0  0  0  0  0  0  0  0  0  0  0  0
   20.4678   19.8565   26.5820 C   0  0  0  0  0  0  0  0  0  0  0  0
   19.7828   20.5939   26.1585 H   0  0  0  0  0  0  0  0  0  0  0  0
   19.9709   19.3060   27.3837 H   0  0  0  0  0  0  0  0  0  0  0  0
   21.3535   20.3607   26.9747 H   0  0  0  0  0  0  0  0  0  0  0  0
  1  2  1  0  0  0  0
  1  3  1  0  0  0  0
  1  4  1  0  0  0  0
  4  5  1  0  0  0  0
  4  6  1  0  0  0  0
  4  7  1  0  0  0  0
  7  8  1  0  0  0  0
  7  9  1  0  0  0  0
  7 10  1  0  0  0  0
 10 11  1  0  0  0  0
 10 12  1  0  0  0  0
 10 13  1  0  0  0  0
 13 14  1  0  0  0  0
 13 15  1  0  0  0  0
 13 16  1  0  0  0  0
 16 17  1  0  0  0  0
 16 18  1  0  0  0  0
 16 19  1  0  0  0  0
 19 20  1  0  0  0  0
 19 21  1  0  0  0  0
 19 22  1  0  0  0  0
  1 23  1  0  0  0  0
 23 24  1  0  0  0  0
 23 25  1  0  0  0  0
 23 26  1  0  0  0  0
M  END
> <VM2 Rank>
54

> <Conf_Id>
1085

> <Probability>
0.67

> <Sum Probability>
83.63

> <Delta G>
1.381

> <G>
76.847

> <E>
44.164

> <-TS>
32.683

> <U+W>
22.702

> <U>
72.375

> <W>
-49.673

> <W(PB)>
-51.923

> <W(SA)>
2.250

> <Valence>
2.386

> <Coulomb>
69.689

> <VdW>
0.300

> <VdW6>
-7.604

> <VdW12>
7.904

> <Bond>
0.210

> <Angle>
0.753

> <Pdih>
1.423

> <Idih>
0.000

> <Tether>
0.000

$$$$
VeraChem MOL file


 26 25  0  0  0  0  0  0  0  0999 V2000     
   19.8197   18.3994   26.2068 N   0  3  0  0  0  0  0  0  0  0  0  0
   20.7691   18.0346   26.3801 H   0  0  0  0  0  0  0  0  0  0  0  0
   19.1846   17.6452   26.5132 H   0  0  0  0  0  0  0  0  0  0  0  0
   19.6198   18.6608   24.7233 C   0  0  0  0  0  0  0  0  0  0  0  0
   18.6234   19.0888   24.5880 H   0  0  0  0  0  0  0  0  0  0  0  0
   19.6441   17.6915   24.2198 H   0  0  0  0  0  0  0  0  0  0  0  0
   20.6793   19.5861   24.0873 C   0  0  0  0  0  0  0  0  0  0  0  0
   20.6589   20.5632   24.5867 H   0  0  0  0  0  0  0  0  0  0  0  0
   21.6810   19.1689   24.2550 H   0  0  0  0  0  0  0  0  0  0  0  0
   20.4514   19.7989   22.5720 C   0  0  0  0  0  0  0  0  0  0  0  0
   21.1846   20.5300   22.2046 H   0  0  0  0  0  0  0  0  0  0  0  0
   19.4605   20.2464   22.4178 H   0  0  0  0  0  0  0  0  0  0  0  0
   20.5792   18.4915   21.7495 C   0  0  0  0  0  0  0  0  0  0  0  0
   21.5326   18.0039   21.9958 H   0  0  0  0  0  0  0  0  0  0  0  0
   19.7874   17.7861   22.0347 H   0  0  0  0  0  0  0  0  0  0  0  0
   20.5264   18.7216   20.2196 C   0  0  0  0  0  0  0  0  0  0  0  0
   20.7245   17.7671   19.7121 H   0  0  0  0  0  0  0  0  0  0  0  0
   21.3342   19.4029   19.9177 H   0  0  0  0  0  0  0  0  0  0  0  0
   19.1691   19.2748   19.7288 C   0  0  0  0  0  0  0  0  0  0  0  0
   19.1527   19.3359   18.6329 H   0  0  0  0  0  0  0  0  0  0  0  0
   18.9801   20.2830   20.1177 H   0  0  0  0  0  0  0  0  0  0  0  0
   18.3414   18.6247   20.0407 H   0  0  0  0  0  0  0  0  0  0  0  0
   19.5630   19.6569   27.0297 C   0  0  0  0  0  0  0  0  0  0  0  0
   18.5468   20.0088   26.8395 H   0  0  0  0  0  0  0  0  0  0  0  0
   19.6787   19.4197   28.0896 H   0  0  0  0  0  0  0  0  0  0  0  0
   20.2818   20.4282   26.7461 H   0  0  0  0  0  0  0  0  0  0  0  0
  1  2  1  0  0  0  0
  1  3  1  0  0  0  0
  1  4  1  0  0  0  0
  4  5  1  0  0  0  0
  4  6  1  0  0  0  0
  4  7  1  0  0  0  0
  7  8  1  0  0  0  0
  7  9  1  0  0  0  0
  7 10  1  0  0  0  0
 10 11  1  0  0  0  0
 10 12  1  0  0  0  0
 10 13  1  0  0  0  0
 13 14  1  0  0  0  0
 13 15  1  0  0  0  0
 13 16  1  0  0  0  0
 16 17  1  0  0  0  0
 16 18  1  0  0  0  0
 16 19  1  0  0  0  0
 19 20  1  0  0  0  0
 19 21  1  0  0  0  0
 19 22  1  0  0  0  0
  1 23  1  0  0  0  0
 23 24  1  0  0  0  0
 23 25  1  0  0  0  0
 23 26  1  0  0  0  0
M  END
> <VM2 Rank>
55

> <Conf_Id>
251

> <Probability>
0.66

> <Sum Probability>
84.28

> <Delta G>
1.398

> <G>
76.864

> <E>
44.315

> <-TS>
32.549

> <U+W>
22.853

> <U>
72.218

> <W>
-49.365

> <W(PB)>
-51.633

> <W(SA)>
2.268

> <Valence>
2.805

> <Coulomb>
68.814

> <VdW>
0.600

> <VdW6>
-7.202

> <VdW12>
7.802

> <Bond>
0.224

> <Angle>
0.821

> <Pdih>
1.760

> <Idih>
0.000

> <Tether>
0.000

$$$$
VeraChem MOL file


 26 25  0  0  0  0  0  0  0  0999 V2000     
   19.4876   19.2034   26.3620 N   0  3  0  0  0  0  0  0  0  0  0  0
   19.1372   18.2834   26.6708 H   0  0  0  0  0  0  0  0  0  0  0  0
   18.8870   19.8921   26.8425 H   0  0  0  0  0  0  0  0  0  0  0  0
   19.3263   19.3491   24.8582 C   0  0  0  0  0  0  0  0  0  0  0  0
   19.7442   20.3165   24.5701 H   0  0  0  0  0  0  0  0  0  0  0  0
   18.2542   19.3653   24.6462 H   0  0  0  0  0  0  0  0  0  0  0  0
   19.9834   18.2226   24.0323 C   0  0  0  0  0  0  0  0  0  0  0  0
   21.0681   18.2170   24.2002 H   0  0  0  0  0  0  0  0  0  0  0  0
   19.6059   17.2541   24.3863 H   0  0  0  0  0  0  0  0  0  0  0  0
   19.6982   18.3482   22.5170 C   0  0  0  0  0  0  0  0  0  0  0  0
   18.6127   18.3394   22.3464 H   0  0  0  0  0  0  0  0  0  0  0  0
   20.0991   17.4571   22.0170 H   0  0  0  0  0  0  0  0  0  0  0  0
   20.3173   19.6217   21.8862 C   0  0  0  0  0  0  0  0  0  0  0  0
   19.9350   20.5112   22.4041 H   0  0  0  0  0  0  0  0  0  0  0  0
   21.4054   19.6193   22.0390 H   0  0  0  0  0  0  0  0  0  0  0  0
   20.0088   19.7742   20.3768 C   0  0  0  0  0  0  0  0  0  0  0  0
   20.3807   20.7515   20.0388 H   0  0  0  0  0  0  0  0  0  0  0  0
   18.9212   19.7887   20.2191 H   0  0  0  0  0  0  0  0  0  0  0  0
   20.6468   18.6709   19.5019 C   0  0  0  0  0  0  0  0  0  0  0  0
   20.2142   17.6856   19.7146 H   0  0  0  0  0  0  0  0  0  0  0  0
   21.7307   18.6140   19.6658 H   0  0  0  0  0  0  0  0  0  0  0  0
   20.4795   18.8805   18.4375 H   0  0  0  0  0  0  0  0  0  0  0  0
   20.9396   19.4000   26.7826 C   0  0  0  0  0  0  0  0  0  0  0  0
   21.0098   19.3240   27.8700 H   0  0  0  0  0  0  0  0  0  0  0  0
   21.5580   18.6279   26.3204 H   0  0  0  0  0  0  0  0  0  0  0  0
   21.2762   20.3875   26.4596 H   0  0  0  0  0  0  0  0  0  0  0  0
  1  2  1  0  0  0  0
  1  3  1  0  0  0  0
  1  4  1  0  0  0  0
  4  5  1  0  0  0  0
  4  6  1  0  0  0  0
  4  7  1  0  0  0  0
  7  8  1  0  0  0  0
  7  9  1  0  0  0  0
  7 10  1  0  0  0  0
 10 11  1  0  0  0  0
 10 12  1  0  0  0  0
 10 13  1  0  0  0  0
 13 14  1  0  0  0  0
 13 15  1  0  0  0  0
 13 16  1  0  0  0  0
 16 17  1  0  0  0  0
 16 18  1  0  0  0  0
 16 19  1  0  0  0  0
 19 20  1  0  0  0  0
 19 21  1  0  0  0  0
 19 22  1  0  0  0  0
  1 23  1  0  0  0  0
 23 24  1  0  0  0  0
 23 25  1  0  0  0  0
 23 26  1  0  0  0  0
M  END
> <VM2 Rank>
56

> <Conf_Id>
559

> <Probability>
0.64

> <Sum Probability>
84.93

> <Delta G>
1.410

> <G>
76.876

> <E>
44.362

> <-TS>
32.514

> <U+W>
22.901

> <U>
72.180

> <W>
-49.280

> <W(PB)>
-51.574

> <W(SA)>
2.294

> <Valence>
2.842

> <Coulomb>
68.728

> <VdW>
0.611

> <VdW6>
-7.185

> <VdW12>
7.795

> <Bond>
0.227

> <Angle>
0.860

> <Pdih>
1.755

> <Idih>
0.000

> <Tether>
0.000

$$$$
VeraChem MOL file


 26 25  0  0  0  0  0  0  0  0999 V2000     
   20.2093   18.4395   26.2207 N   0  3  0  0  0  0  0  0  0  0  0  0
   20.9610   17.8275   26.5762 H   0  0  0  0  0  0  0  0  0  0  0  0
   19.3438   17.8887   26.3298 H   0  0  0  0  0  0  0  0  0  0  0  0
   20.4553   18.7465   24.7529 C   0  0  0  0  0  0  0  0  0  0  0  0
   20.6634   17.7959   24.2561 H   0  0  0  0  0  0  0  0  0  0  0  0
   21.3512   19.3685   24.6845 H   0  0  0  0  0  0  0  0  0  0  0  0
   19.2774   19.4421   24.0376 C   0  0  0  0  0  0  0  0  0  0  0  0
   18.3719   18.8292   24.1377 H   0  0  0  0  0  0  0  0  0  0  0  0
   19.0642   20.3995   24.5302 H   0  0  0  0  0  0  0  0  0  0  0  0
   19.5630   19.7076   22.5405 C   0  0  0  0  0  0  0  0  0  0  0  0
   20.4507   20.3480   22.4529 H   0  0  0  0  0  0  0  0  0  0  0  0
   18.7242   20.2773   22.1174 H   0  0  0  0  0  0  0  0  0  0  0  0
   19.7612   18.4075   21.7205 C   0  0  0  0  0  0  0  0  0  0  0  0
   20.6579   17.8755   22.0655 H   0  0  0  0  0  0  0  0  0  0  0  0
   18.9119   17.7347   21.9030 H   0  0  0  0  0  0  0  0  0  0  0  0
   19.8732   18.6544   20.1965 C   0  0  0  0  0  0  0  0  0  0  0  0
   18.9670   19.1597   19.8338 H   0  0  0  0  0  0  0  0  0  0  0  0
   19.9091   17.6833   19.6833 H   0  0  0  0  0  0  0  0  0  0  0  0
   21.1208   19.4754   19.7979 C   0  0  0  0  0  0  0  0  0  0  0  0
   21.2011   19.5463   18.7055 H   0  0  0  0  0  0  0  0  0  0  0  0
   22.0394   19.0048   20.1717 H   0  0  0  0  0  0  0  0  0  0  0  0
   21.0733   20.4982   20.1917 H   0  0  0  0  0  0  0  0  0  0  0  0
   20.1477   19.7170   27.0503 C   0  0  0  0  0  0  0  0  0  0  0  0
   20.0086   19.4539   28.1013 H   0  0  0  0  0  0  0  0  0  0  0  0
   21.0824   20.2689   26.9292 H   0  0  0  0  0  0  0  0  0  0  0  0
   19.3092   20.3288   26.7116 H   0  0  0  0  0  0  0  0  0  0  0  0
  1  2  1  0  0  0  0
  1  3  1  0  0  0  0
  1  4  1  0  0  0  0
  4  5  1  0  0  0  0
  4  6  1  0  0  0  0
  4  7  1  0  0  0  0
  7  8  1  0  0  0  0
  7  9  1  0  0  0  0
  7 10  1  0  0  0  0
 10 11  1  0  0  0  0
 10 12  1  0  0  0  0
 10 13  1  0  0  0  0
 13 14  1  0  0  0  0
 13 15  1  0  0  0  0
 13 16  1  0  0  0  0
 16 17  1  0  0  0  0
 16 18  1  0  0  0  0
 16 19  1  0  0  0  0
 19 20  1  0  0  0  0
 19 21  1  0  0  0  0
 19 22  1  0  0  0  0
  1 23  1  0  0  0  0
 23 24  1  0  0  0  0
 23 25  1  0  0  0  0
 23 26  1  0  0  0  0
M  END
> <VM2 Rank>
57

> <Conf_Id>
846

> <Probability>
0.61

> <Sum Probability>
85.54

> <Delta G>
1.439

> <G>
76.905

> <E>
44.356

> <-TS>
32.549

> <U+W>
22.894

> <U>
72.218

> <W>
-49.324

> <W(PB)>
-51.599

> <W(SA)>
2.275

> <Valence>
2.805

> <Coulomb>
68.813

> <VdW>
0.600

> <VdW6>
-7.202

> <VdW12>
7.801

> <Bond>
0.224

> <Angle>
0.821

> <Pdih>
1.760

> <Idih>
0.000

> <Tether>
0.000

$$$$
VeraChem MOL file


 26 25  0  0  0  0  0  0  0  0999 V2000     
   20.3601   19.2925   26.3929 N   0  3  0  0  0  0  0  0  0  0  0  0
   20.7739   20.0849   26.9093 H   0  0  0  0  0  0  0  0  0  0  0  0
   20.8665   18.4602   26.7321 H   0  0  0  0  0  0  0  0  0  0  0  0
   20.5935   19.4787   24.9031 C   0  0  0  0  0  0  0  0  0  0  0  0
   21.6524   19.7129   24.7667 H   0  0  0  0  0  0  0  0  0  0  0  0
   20.0098   20.3436   24.5794 H   0  0  0  0  0  0  0  0  0  0  0  0
   20.2374   18.2484   24.0413 C   0  0  0  0  0  0  0  0  0  0  0  0
   20.7774   17.3739   24.4276 H   0  0  0  0  0  0  0  0  0  0  0  0
   19.1672   18.0223   24.1330 H   0  0  0  0  0  0  0  0  0  0  0  0
   20.5965   18.4402   22.5488 C   0  0  0  0  0  0  0  0  0  0  0  0
   20.4204   17.4899   22.0283 H   0  0  0  0  0  0  0  0  0  0  0  0
   21.6704   18.6527   22.4546 H   0  0  0  0  0  0  0  0  0  0  0  0
   19.7778   19.5663   21.8672 C   0  0  0  0  0  0  0  0  0  0  0  0
   18.7048   19.3421   21.9432 H   0  0  0  0  0  0  0  0  0  0  0  0
   19.9344   20.5110   22.4043 H   0  0  0  0  0  0  0  0  0  0  0  0
   20.1541   19.7893   20.3821 C   0  0  0  0  0  0  0  0  0  0  0  0
   21.2244   20.0255   20.3011 H   0  0  0  0  0  0  0  0  0  0  0  0
   19.6162   20.6733   20.0119 H   0  0  0  0  0  0  0  0  0  0  0  0
   19.8163   18.5860   19.4724 C   0  0  0  0  0  0  0  0  0  0  0  0
   20.0118   18.8331   18.4209 H   0  0  0  0  0  0  0  0  0  0  0  0
   18.7578   18.3089   19.5602 H   0  0  0  0  0  0  0  0  0  0  0  0
   20.4240   17.7075   19.7218 H   0  0  0  0  0  0  0  0  0  0  0  0
   18.8724   19.1887   26.7093 C   0  0  0  0  0  0  0  0  0  0  0  0
   18.7429   19.0923   27.7896 H   0  0  0  0  0  0  0  0  0  0  0  0
   18.3667   20.0902   26.3564 H   0  0  0  0  0  0  0  0  0  0  0  0
   18.4567   18.3110   26.2103 H   0  0  0  0  0  0  0  0  0  0  0  0
  1  2  1  0  0  0  0
  1  3  1  0  0  0  0
  1  4  1  0  0  0  0
  4  5  1  0  0  0  0
  4  6  1  0  0  0  0
  4  7  1  0  0  0  0
  7  8  1  0  0  0  0
  7  9  1  0  0  0  0
  7 10  1  0  0  0  0
 10 11  1  0  0  0  0
 10 12  1  0  0  0  0
 10 13  1  0  0  0  0
 13 14  1  0  0  0  0
 13 15  1  0  0  0  0
 13 16  1  0  0  0  0
 16 17  1  0  0  0  0
 16 18  1  0  0  0  0
 16 19  1  0  0  0  0
 19 20  1  0  0  0  0
 19 21  1  0  0  0  0
 19 22  1  0  0  0  0
  1 23  1  0  0  0  0
 23 24  1  0  0  0  0
 23 25  1  0  0  0  0
 23 26  1  0  0  0  0
M  END
> <VM2 Rank>
58

> <Conf_Id>
1551

> <Probability>
0.56

> <Sum Probability>
86.10

> <Delta G>
1.493

> <G>
76.959

> <E>
44.445

> <-TS>
32.514

> <U+W>
22.984

> <U>
72.180

> <W>
-49.197

> <W(PB)>
-51.483

> <W(SA)>
2.286

> <Valence>
2.842

> <Coulomb>
68.728

> <VdW>
0.610

> <VdW6>
-7.185

> <VdW12>
7.795

> <Bond>
0.227

> <Angle>
0.860

> <Pdih>
1.755

> <Idih>
0.000

> <Tether>
0.000

$$$$
VeraChem MOL file


 26 25  0  0  0  0  0  0  0  0999 V2000     
   20.0327   19.0274   26.2947 N   0  3  0  0  0  0  0  0  0  0  0  0
   20.8641   18.4332   26.4366 H   0  0  0  0  0  0  0  0  0  0  0  0
   19.4308   18.8427   27.1130 H   0  0  0  0  0  0  0  0  0  0  0  0
   19.3045   18.6175   25.0255 C   0  0  0  0  0  0  0  0  0  0  0  0
   18.4573   19.2945   24.8900 H   0  0  0  0  0  0  0  0  0  0  0  0
   18.9113   17.6107   25.1878 H   0  0  0  0  0  0  0  0  0  0  0  0
   20.1813   18.6143   23.7569 C   0  0  0  0  0  0  0  0  0  0  0  0
   20.5578   19.6277   23.5727 H   0  0  0  0  0  0  0  0  0  0  0  0
   21.0541   17.9681   23.9187 H   0  0  0  0  0  0  0  0  0  0  0  0
   19.3868   18.1174   22.5263 C   0  0  0  0  0  0  0  0  0  0  0  0
   18.5349   18.7851   22.3403 H   0  0  0  0  0  0  0  0  0  0  0  0
   18.9540   17.1335   22.7545 H   0  0  0  0  0  0  0  0  0  0  0  0
   20.2473   17.9864   21.2427 C   0  0  0  0  0  0  0  0  0  0  0  0
   21.0256   17.2291   21.4101 H   0  0  0  0  0  0  0  0  0  0  0  0
   19.6157   17.5934   20.4341 H   0  0  0  0  0  0  0  0  0  0  0  0
   20.9212   19.2963   20.7596 C   0  0  0  0  0  0  0  0  0  0  0  0
   21.4967   19.0778   19.8492 H   0  0  0  0  0  0  0  0  0  0  0  0
   21.6541   19.6424   21.5007 H   0  0  0  0  0  0  0  0  0  0  0  0
   19.9153   20.4289   20.4522 C   0  0  0  0  0  0  0  0  0  0  0  0
   19.1601   20.0998   19.7267 H   0  0  0  0  0  0  0  0  0  0  0  0
   20.4332   21.2981   20.0267 H   0  0  0  0  0  0  0  0  0  0  0  0
   19.3978   20.7647   21.3594 H   0  0  0  0  0  0  0  0  0  0  0  0
   20.4190   20.5018   26.2590 C   0  0  0  0  0  0  0  0  0  0  0  0
   19.5186   21.1055   26.1263 H   0  0  0  0  0  0  0  0  0  0  0  0
   20.9047   20.7665   27.2009 H   0  0  0  0  0  0  0  0  0  0  0  0
   21.1077   20.6757   25.4299 H   0  0  0  0  0  0  0  0  0  0  0  0
  1  2  1  0  0  0  0
  1  3  1  0  0  0  0
  1  4  1  0  0  0  0
  4  5  1  0  0  0  0
  4  6  1  0  0  0  0
  4  7  1  0  0  0  0
  7  8  1  0  0  0  0
  7  9  1  0  0  0  0
  7 10  1  0  0  0  0
 10 11  1  0  0  0  0
 10 12  1  0  0  0  0
 10 13  1  0  0  0  0
 13 14  1  0  0  0  0
 13 15  1  0  0  0  0
 13 16  1  0  0  0  0
 16 17  1  0  0  0  0
 16 18  1  0  0  0  0
 16 19  1  0  0  0  0
 19 20  1  0  0  0  0
 19 21  1  0  0  0  0
 19 22  1  0  0  0  0
  1 23  1  0  0  0  0
 23 24  1  0  0  0  0
 23 25  1  0  0  0  0
 23 26  1  0  0  0  0
M  END
> <VM2 Rank>
59

> <Conf_Id>
1567

> <Probability>
0.53

> <Sum Probability>
86.63

> <Delta G>
1.521

> <G>
76.987

> <E>
44.221

> <-TS>
32.766

> <U+W>
22.759

> <U>
72.216

> <W>
-49.457

> <W(PB)>
-51.691

> <W(SA)>
2.234

> <Valence>
2.957

> <Coulomb>
68.762

> <VdW>
0.496

> <VdW6>
-7.593

> <VdW12>
8.090

> <Bond>
0.241

> <Angle>
1.122

> <Pdih>
1.593

> <Idih>
0.000

> <Tether>
0.000

$$$$
VeraChem MOL file


 26 25  0  0  0  0  0  0  0  0999 V2000     
   19.8701   18.2986   26.1260 N   0  3  0  0  0  0  0  0  0  0  0  0
   20.4396   17.8643   26.8697 H   0  0  0  0  0  0  0  0  0  0  0  0
   19.2471   17.5461   25.7943 H   0  0  0  0  0  0  0  0  0  0  0  0
   20.7765   18.7656   24.9992 C   0  0  0  0  0  0  0  0  0  0  0  0
   21.4384   17.9326   24.7487 H   0  0  0  0  0  0  0  0  0  0  0  0
   21.3916   19.5848   25.3796 H   0  0  0  0  0  0  0  0  0  0  0  0
   20.0338   19.2155   23.7247 C   0  0  0  0  0  0  0  0  0  0  0  0
   19.3807   18.4014   23.3865 H   0  0  0  0  0  0  0  0  0  0  0  0
   19.3899   20.0743   23.9536 H   0  0  0  0  0  0  0  0  0  0  0  0
   21.0265   19.6003   22.6026 C   0  0  0  0  0  0  0  0  0  0  0  0
   21.6443   18.7315   22.3390 H   0  0  0  0  0  0  0  0  0  0  0  0
   21.7222   20.3590   22.9871 H   0  0  0  0  0  0  0  0  0  0  0  0
   20.3395   20.1667   21.3329 C   0  0  0  0  0  0  0  0  0  0  0  0
   19.8199   21.0991   21.5936 H   0  0  0  0  0  0  0  0  0  0  0  0
   21.1159   20.4488   20.6084 H   0  0  0  0  0  0  0  0  0  0  0  0
   19.3333   19.2112   20.6416 C   0  0  0  0  0  0  0  0  0  0  0  0
   18.9151   19.7209   19.7624 H   0  0  0  0  0  0  0  0  0  0  0  0
   18.4812   19.0118   21.3052 H   0  0  0  0  0  0  0  0  0  0  0  0
   19.9654   17.8756   20.1880 C   0  0  0  0  0  0  0  0  0  0  0  0
   20.8323   18.0500   19.5377 H   0  0  0  0  0  0  0  0  0  0  0  0
   19.2377   17.2776   19.6243 H   0  0  0  0  0  0  0  0  0  0  0  0
   20.2934   17.2741   21.0449 H   0  0  0  0  0  0  0  0  0  0  0  0
   19.0630   19.4566   26.7020 C   0  0  0  0  0  0  0  0  0  0  0  0
   18.4155   19.8682   25.9252 H   0  0  0  0  0  0  0  0  0  0  0  0
   18.4537   19.0896   27.5310 H   0  0  0  0  0  0  0  0  0  0  0  0
   19.7480   20.2277   27.0611 H   0  0  0  0  0  0  0  0  0  0  0  0
  1  2  1  0  0  0  0
  1  3  1  0  0  0  0
  1  4  1  0  0  0  0
  4  5  1  0  0  0  0
  4  6  1  0  0  0  0
  4  7  1  0  0  0  0
  7  8  1  0  0  0  0
  7  9  1  0  0  0  0
  7 10  1  0  0  0  0
 10 11  1  0  0  0  0
 10 12  1  0  0  0  0
 10 13  1  0  0  0  0
 13 14  1  0  0  0  0
 13 15  1  0  0  0  0
 13 16  1  0  0  0  0
 16 17  1  0  0  0  0
 16 18  1  0  0  0  0
 16 19  1  0  0  0  0
 19 20  1  0  0  0  0
 19 21  1  0  0  0  0
 19 22  1  0  0  0  0
  1 23  1  0  0  0  0
 23 24  1  0  0  0  0
 23 25  1  0  0  0  0
 23 26  1  0  0  0  0
M  END
> <VM2 Rank>
60

> <Conf_Id>
1001

> <Probability>
0.52

> <Sum Probability>
87.14

> <Delta G>
1.540

> <G>
77.006

> <E>
44.245

> <-TS>
32.761

> <U+W>
22.783

> <U>
72.256

> <W>
-49.473

> <W(PB)>
-51.710

> <W(SA)>
2.238

> <Valence>
2.959

> <Coulomb>
68.784

> <VdW>
0.514

> <VdW6>
-7.552

> <VdW12>
8.066

> <Bond>
0.240

> <Angle>
1.124

> <Pdih>
1.594

> <Idih>
0.000

> <Tether>
0.000

$$$$
VeraChem MOL file


 26 25  0  0  0  0  0  0  0  0999 V2000     
   19.8689   19.0102   26.2890 N   0  3  0  0  0  0  0  0  0  0  0  0
   20.4376   18.9494   27.1486 H   0  0  0  0  0  0  0  0  0  0  0  0
   19.1720   18.2546   26.3772 H   0  0  0  0  0  0  0  0  0  0  0  0
   20.7532   18.7705   25.0767 C   0  0  0  0  0  0  0  0  0  0  0  0
   21.3353   17.8665   25.2734 H   0  0  0  0  0  0  0  0  0  0  0  0
   21.4480   19.6101   24.9956 H   0  0  0  0  0  0  0  0  0  0  0  0
   19.9870   18.5938   23.7501 C   0  0  0  0  0  0  0  0  0  0  0  0
   19.2588   17.7789   23.8555 H   0  0  0  0  0  0  0  0  0  0  0  0
   19.4214   19.5079   23.5325 H   0  0  0  0  0  0  0  0  0  0  0  0
   20.9514   18.2823   22.5816 C   0  0  0  0  0  0  0  0  0  0  0  0
   21.5625   17.4083   22.8467 H   0  0  0  0  0  0  0  0  0  0  0  0
   21.6565   19.1139   22.4506 H   0  0  0  0  0  0  0  0  0  0  0  0
   20.2287   17.9844   21.2421 C   0  0  0  0  0  0  0  0  0  0  0  0
   20.9831   17.7373   20.4825 H   0  0  0  0  0  0  0  0  0  0  0  0
   19.6152   17.0806   21.3604 H   0  0  0  0  0  0  0  0  0  0  0  0
   19.3324   19.1290   20.7035 C   0  0  0  0  0  0  0  0  0  0  0  0
   18.4937   19.3096   21.3890 H   0  0  0  0  0  0  0  0  0  0  0  0
   18.8800   18.8022   19.7567 H   0  0  0  0  0  0  0  0  0  0  0  0
   20.0997   20.4482   20.4586 C   0  0  0  0  0  0  0  0  0  0  0  0
   20.4714   20.8777   21.3972 H   0  0  0  0  0  0  0  0  0  0  0  0
   19.4433   21.1938   19.9916 H   0  0  0  0  0  0  0  0  0  0  0  0
   20.9556   20.2887   19.7901 H   0  0  0  0  0  0  0  0  0  0  0  0
   19.1868   20.3717   26.2154 C   0  0  0  0  0  0  0  0  0  0  0  0
   18.5363   20.4039   25.3391 H   0  0  0  0  0  0  0  0  0  0  0  0
   18.5922   20.5225   27.1192 H   0  0  0  0  0  0  0  0  0  0  0  0
   19.9484   21.1510   26.1411 H   0  0  0  0  0  0  0  0  0  0  0  0
  1  2  1  0  0  0  0
  1  3  1  0  0  0  0
  1  4  1  0  0  0  0
  4  5  1  0  0  0  0
  4  6  1  0  0  0  0
  4  7  1  0  0  0  0
  7  8  1  0  0  0  0
  7  9  1  0  0  0  0
  7 10  1  0  0  0  0
 10 11  1  0  0  0  0
 10 12  1  0  0  0  0
 10 13  1  0  0  0  0
 13 14  1  0  0  0  0
 13 15  1  0  0  0  0
 13 16  1  0  0  0  0
 16 17  1  0  0  0  0
 16 18  1  0  0  0  0
 16 19  1  0  0  0  0
 19 20  1  0  0  0  0
 19 21  1  0  0  0  0
 19 22  1  0  0  0  0
  1 23  1  0  0  0  0
 23 24  1  0  0  0  0
 23 25  1  0  0  0  0
 23 26  1  0  0  0  0
M  END
> <VM2 Rank>
61

> <Conf_Id>
1469

> <Probability>
0.51

> <Sum Probability>
87.65

> <Delta G>
1.552

> <G>
77.018

> <E>
44.253

> <-TS>
32.766

> <U+W>
22.791

> <U>
72.216

> <W>
-49.425

> <W(PB)>
-51.679

> <W(SA)>
2.253

> <Valence>
2.957

> <Coulomb>
68.762

> <VdW>
0.497

> <VdW6>
-7.593

> <VdW12>
8.090

> <Bond>
0.242

> <Angle>
1.122

> <Pdih>
1.593

> <Idih>
0.000

> <Tether>
0.000

$$$$
VeraChem MOL file


 26 25  0  0  0  0  0  0  0  0999 V2000     
   19.8377   18.1142   25.7826 N   0  3  0  0  0  0  0  0  0  0  0  0
   20.4083   17.3031   26.0696 H   0  0  0  0  0  0  0  0  0  0  0  0
   18.9292   17.7146   25.5013 H   0  0  0  0  0  0  0  0  0  0  0  0
   20.4965   18.8064   24.6011 C   0  0  0  0  0  0  0  0  0  0  0  0
   20.7436   18.0317   23.8712 H   0  0  0  0  0  0  0  0  0  0  0  0
   21.4301   19.2544   24.9504 H   0  0  0  0  0  0  0  0  0  0  0  0
   19.6225   19.8798   23.9180 C   0  0  0  0  0  0  0  0  0  0  0  0
   18.6688   19.4358   23.6062 H   0  0  0  0  0  0  0  0  0  0  0  0
   19.3724   20.6638   24.6442 H   0  0  0  0  0  0  0  0  0  0  0  0
   20.3237   20.5392   22.7039 C   0  0  0  0  0  0  0  0  0  0  0  0
   21.2041   21.0922   23.0597 H   0  0  0  0  0  0  0  0  0  0  0  0
   19.6509   21.2914   22.2694 H   0  0  0  0  0  0  0  0  0  0  0  0
   20.7710   19.5553   21.5916 C   0  0  0  0  0  0  0  0  0  0  0  0
   21.2699   20.1321   20.8005 H   0  0  0  0  0  0  0  0  0  0  0  0
   21.5289   18.8637   21.9832 H   0  0  0  0  0  0  0  0  0  0  0  0
   19.6047   18.7527   20.9679 C   0  0  0  0  0  0  0  0  0  0  0  0
   18.8268   19.4433   20.6133 H   0  0  0  0  0  0  0  0  0  0  0  0
   19.1385   18.1099   21.7265 H   0  0  0  0  0  0  0  0  0  0  0  0
   20.0827   17.8733   19.7928 C   0  0  0  0  0  0  0  0  0  0  0  0
   19.2440   17.3093   19.3643 H   0  0  0  0  0  0  0  0  0  0  0  0
   20.8404   17.1509   20.1231 H   0  0  0  0  0  0  0  0  0  0  0  0
   20.5197   18.4854   18.9931 H   0  0  0  0  0  0  0  0  0  0  0  0
   19.6692   19.0690   26.9591 C   0  0  0  0  0  0  0  0  0  0  0  0
   20.6474   19.4614   27.2456 H   0  0  0  0  0  0  0  0  0  0  0  0
   19.0111   19.8900   26.6679 H   0  0  0  0  0  0  0  0  0  0  0  0
   19.2294   18.5266   27.7990 H   0  0  0  0  0  0  0  0  0  0  0  0
  1  2  1  0  0  0  0
  1  3  1  0  0  0  0
  1  4  1  0  0  0  0
  4  5  1  0  0  0  0
  4  6  1  0  0  0  0
  4  7  1  0  0  0  0
  7  8  1  0  0  0  0
  7  9  1  0  0  0  0
  7 10  1  0  0  0  0
 10 11  1  0  0  0  0
 10 12  1  0  0  0  0
 10 13  1  0  0  0  0
 13 14  1  0  0  0  0
 13 15  1  0  0  0  0
 13 16  1  0  0  0  0
 16 17  1  0  0  0  0
 16 18  1  0  0  0  0
 16 19  1  0  0  0  0
 19 20  1  0  0  0  0
 19 21  1  0  0  0  0
 19 22  1  0  0  0  0
  1 23  1  0  0  0  0
 23 24  1  0  0  0  0
 23 25  1  0  0  0  0
 23 26  1  0  0  0  0
M  END
> <VM2 Rank>
62

> <Conf_Id>
835

> <Probability>
0.50

> <Sum Probability>
88.15

> <Delta G>
1.559

> <G>
77.025

> <E>
44.352

> <-TS>
32.672

> <U+W>
22.890

> <U>
72.548

> <W>
-49.658

> <W(PB)>
-51.921

> <W(SA)>
2.263

> <Valence>
2.777

> <Coulomb>
69.321

> <VdW>
0.450

> <VdW6>
-7.543

> <VdW12>
7.993

> <Bond>
0.232

> <Angle>
0.993

> <Pdih>
1.552

> <Idih>
0.000

> <Tether>
0.000

$$$$
VeraChem MOL file


 26 25  0  0  0  0  0  0  0  0999 V2000     
   20.1846   18.3305   26.1372 N   0  3  0  0  0  0  0  0  0  0  0  0
   20.9677   17.7209   25.8554 H   0  0  0  0  0  0  0  0  0  0  0  0
   19.6632   17.7854   26.8422 H   0  0  0  0  0  0  0  0  0  0  0  0
   19.2842   18.6139   24.9462 C   0  0  0  0  0  0  0  0  0  0  0  0
   18.4919   19.2902   25.2767 H   0  0  0  0  0  0  0  0  0  0  0  0
   18.8223   17.6668   24.6559 H   0  0  0  0  0  0  0  0  0  0  0  0
   20.0089   19.2129   23.7238 C   0  0  0  0  0  0  0  0  0  0  0  0
   20.4498   20.1818   23.9912 H   0  0  0  0  0  0  0  0  0  0  0  0
   20.8342   18.5488   23.4379 H   0  0  0  0  0  0  0  0  0  0  0  0
   19.0403   19.3988   22.5323 C   0  0  0  0  0  0  0  0  0  0  0  0
   18.1814   19.9997   22.8617 H   0  0  0  0  0  0  0  0  0  0  0  0
   18.6294   18.4256   22.2321 H   0  0  0  0  0  0  0  0  0  0  0  0
   19.6870   20.1006   21.3098 C   0  0  0  0  0  0  0  0  0  0  0  0
   18.9225   20.2264   20.5308 H   0  0  0  0  0  0  0  0  0  0  0  0
   19.9895   21.1163   21.5997 H   0  0  0  0  0  0  0  0  0  0  0  0
   20.9103   19.3712   20.6975 C   0  0  0  0  0  0  0  0  0  0  0  0
   21.7364   19.3420   21.4205 H   0  0  0  0  0  0  0  0  0  0  0  0
   21.2783   19.9607   19.8461 H   0  0  0  0  0  0  0  0  0  0  0  0
   20.5923   17.9393   20.2102 C   0  0  0  0  0  0  0  0  0  0  0  0
   20.3323   17.2781   21.0461 H   0  0  0  0  0  0  0  0  0  0  0  0
   21.4628   17.5034   19.7031 H   0  0  0  0  0  0  0  0  0  0  0  0
   19.7558   17.9409   19.4994 H   0  0  0  0  0  0  0  0  0  0  0  0
   20.7003   19.6229   26.7601 C   0  0  0  0  0  0  0  0  0  0  0  0
   21.3047   20.1616   26.0277 H   0  0  0  0  0  0  0  0  0  0  0  0
   19.8508   20.2381   27.0647 H   0  0  0  0  0  0  0  0  0  0  0  0
   21.3111   19.3799   27.6324 H   0  0  0  0  0  0  0  0  0  0  0  0
  1  2  1  0  0  0  0
  1  3  1  0  0  0  0
  1  4  1  0  0  0  0
  4  5  1  0  0  0  0
  4  6  1  0  0  0  0
  4  7  1  0  0  0  0
  7  8  1  0  0  0  0
  7  9  1  0  0  0  0
  7 10  1  0  0  0  0
 10 11  1  0  0  0  0
 10 12  1  0  0  0  0
 10 13  1  0  0  0  0
 13 14  1  0  0  0  0
 13 15  1  0  0  0  0
 13 16  1  0  0  0  0
 16 17  1  0  0  0  0
 16 18  1  0  0  0  0
 16 19  1  0  0  0  0
 19 20  1  0  0  0  0
 19 21  1  0  0  0  0
 19 22  1  0  0  0  0
  1 23  1  0  0  0  0
 23 24  1  0  0  0  0
 23 25  1  0  0  0  0
 23 26  1  0  0  0  0
M  END
> <VM2 Rank>
63

> <Conf_Id>
566

> <Probability>
0.49

> <Sum Probability>
88.64

> <Delta G>
1.567

> <G>
77.033

> <E>
44.272

> <-TS>
32.761

> <U+W>
22.811

> <U>
72.256

> <W>
-49.446

> <W(PB)>
-51.707

> <W(SA)>
2.261

> <Valence>
2.959

> <Coulomb>
68.784

> <VdW>
0.514

> <VdW6>
-7.552

> <VdW12>
8.066

> <Bond>
0.240

> <Angle>
1.124

> <Pdih>
1.594

> <Idih>
0.000

> <Tether>
0.000

$$$$
VeraChem MOL file


 26 25  0  0  0  0  0  0  0  0999 V2000     
   20.5622   18.8381   26.3067 N   0  3  0  0  0  0  0  0  0  0  0  0
   21.4303   19.1544   26.7673 H   0  0  0  0  0  0  0  0  0  0  0  0
   20.6144   17.8078   26.3191 H   0  0  0  0  0  0  0  0  0  0  0  0
   20.5329   19.3456   24.8746 C   0  0  0  0  0  0  0  0  0  0  0  0
   21.5029   19.1099   24.4309 H   0  0  0  0  0  0  0  0  0  0  0  0
   20.4287   20.4331   24.9050 H   0  0  0  0  0  0  0  0  0  0  0  0
   19.4155   18.7354   24.0013 C   0  0  0  0  0  0  0  0  0  0  0  0
   19.5061   17.6411   23.9977 H   0  0  0  0  0  0  0  0  0  0  0  0
   18.4389   18.9676   24.4451 H   0  0  0  0  0  0  0  0  0  0  0  0
   19.4353   19.2634   22.5470 C   0  0  0  0  0  0  0  0  0  0  0  0
   19.3389   20.3579   22.5535 H   0  0  0  0  0  0  0  0  0  0  0  0
   18.5479   18.8760   22.0298 H   0  0  0  0  0  0  0  0  0  0  0  0
   20.7110   18.8543   21.7670 C   0  0  0  0  0  0  0  0  0  0  0  0
   21.5996   19.2232   22.2959 H   0  0  0  0  0  0  0  0  0  0  0  0
   20.7968   17.7591   21.7452 H   0  0  0  0  0  0  0  0  0  0  0  0
   20.7510   19.4036   20.3201 C   0  0  0  0  0  0  0  0  0  0  0  0
   21.7315   19.1696   19.8822 H   0  0  0  0  0  0  0  0  0  0  0  0
   20.6762   20.4999   20.3362 H   0  0  0  0  0  0  0  0  0  0  0  0
   19.6482   18.8200   19.4074 C   0  0  0  0  0  0  0  0  0  0  0  0
   19.6808   17.7228   19.4002 H   0  0  0  0  0  0  0  0  0  0  0  0
   19.7823   19.1658   18.3743 H   0  0  0  0  0  0  0  0  0  0  0  0
   18.6479   19.1327   19.7312 H   0  0  0  0  0  0  0  0  0  0  0  0
   19.3519   19.3297   27.0929 C   0  0  0  0  0  0  0  0  0  0  0  0
   18.4406   18.9363   26.6383 H   0  0  0  0  0  0  0  0  0  0  0  0
   19.4289   18.9774   28.1239 H   0  0  0  0  0  0  0  0  0  0  0  0
   19.3331   20.4215   27.0770 H   0  0  0  0  0  0  0  0  0  0  0  0
  1  2  1  0  0  0  0
  1  3  1  0  0  0  0
  1  4  1  0  0  0  0
  4  5  1  0  0  0  0
  4  6  1  0  0  0  0
  4  7  1  0  0  0  0
  7  8  1  0  0  0  0
  7  9  1  0  0  0  0
  7 10  1  0  0  0  0
 10 11  1  0  0  0  0
 10 12  1  0  0  0  0
 10 13  1  0  0  0  0
 13 14  1  0  0  0  0
 13 15  1  0  0  0  0
 13 16  1  0  0  0  0
 16 17  1  0  0  0  0
 16 18  1  0  0  0  0
 16 19  1  0  0  0  0
 19 20  1  0  0  0  0
 19 21  1  0  0  0  0
 19 22  1  0  0  0  0
  1 23  1  0  0  0  0
 23 24  1  0  0  0  0
 23 25  1  0  0  0  0
 23 26  1  0  0  0  0
M  END
> <VM2 Rank>
64

> <Conf_Id>
1820

> <Probability>
0.49

> <Sum Probability>
89.14

> <Delta G>
1.569

> <G>
77.035

> <E>
44.525

> <-TS>
32.510

> <U+W>
23.063

> <U>
72.298

> <W>
-49.235

> <W(PB)>
-51.503

> <W(SA)>
2.268

> <Valence>
2.869

> <Coulomb>
68.765

> <VdW>
0.664

> <VdW6>
-7.141

> <VdW12>
7.805

> <Bond>
0.231

> <Angle>
0.882

> <Pdih>
1.757

> <Idih>
0.000

> <Tether>
0.000

$$$$
VeraChem MOL file


 26 25  0  0  0  0  0  0  0  0999 V2000     
   19.3880   18.7181   26.2651 N   0  3  0  0  0  0  0  0  0  0  0  0
   19.5443   17.6984   26.2812 H   0  0  0  0  0  0  0  0  0  0  0  0
   18.4438   18.8491   26.6615 H   0  0  0  0  0  0  0  0  0  0  0  0
   19.4143   19.2313   24.8350 C   0  0  0  0  0  0  0  0  0  0  0  0
   19.2943   20.3171   24.8648 H   0  0  0  0  0  0  0  0  0  0  0  0
   18.5454   18.8076   24.3262 H   0  0  0  0  0  0  0  0  0  0  0  0
   20.6903   18.8656   24.0464 C   0  0  0  0  0  0  0  0  0  0  0  0
   21.5663   19.2871   24.5559 H   0  0  0  0  0  0  0  0  0  0  0  0
   20.8231   17.7757   24.0443 H   0  0  0  0  0  0  0  0  0  0  0  0
   20.6661   19.3891   22.5906 C   0  0  0  0  0  0  0  0  0  0  0  0
   21.6474   19.1928   22.1396 H   0  0  0  0  0  0  0  0  0  0  0  0
   20.5388   20.4805   22.5961 H   0  0  0  0  0  0  0  0  0  0  0  0
   19.5572   18.7364   21.7262 C   0  0  0  0  0  0  0  0  0  0  0  0
   19.6961   17.6467   21.7062 H   0  0  0  0  0  0  0  0  0  0  0  0
   18.5776   18.9145   22.1888 H   0  0  0  0  0  0  0  0  0  0  0  0
   19.5085   19.2766   20.2761 C   0  0  0  0  0  0  0  0  0  0  0  0
   19.3590   20.3653   20.2895 H   0  0  0  0  0  0  0  0  0  0  0  0
   18.6286   18.8525   19.7722 H   0  0  0  0  0  0  0  0  0  0  0  0
   20.7677   18.9344   19.4471 C   0  0  0  0  0  0  0  0  0  0  0  0
   21.6590   19.4404   19.8379 H   0  0  0  0  0  0  0  0  0  0  0  0
   20.6392   19.2534   18.4047 H   0  0  0  0  0  0  0  0  0  0  0  0
   20.9580   17.8533   19.4455 H   0  0  0  0  0  0  0  0  0  0  0  0
   20.4158   19.4384   27.1306 C   0  0  0  0  0  0  0  0  0  0  0  0
   20.3396   19.0705   28.1562 H   0  0  0  0  0  0  0  0  0  0  0  0
   21.4175   19.2407   26.7437 H   0  0  0  0  0  0  0  0  0  0  0  0
   20.2147   20.5117   27.1082 H   0  0  0  0  0  0  0  0  0  0  0  0
  1  2  1  0  0  0  0
  1  3  1  0  0  0  0
  1  4  1  0  0  0  0
  4  5  1  0  0  0  0
  4  6  1  0  0  0  0
  4  7  1  0  0  0  0
  7  8  1  0  0  0  0
  7  9  1  0  0  0  0
  7 10  1  0  0  0  0
 10 11  1  0  0  0  0
 10 12  1  0  0  0  0
 10 13  1  0  0  0  0
 13 14  1  0  0  0  0
 13 15  1  0  0  0  0
 13 16  1  0  0  0  0
 16 17  1  0  0  0  0
 16 18  1  0  0  0  0
 16 19  1  0  0  0  0
 19 20  1  0  0  0  0
 19 21  1  0  0  0  0
 19 22  1  0  0  0  0
  1 23  1  0  0  0  0
 23 24  1  0  0  0  0
 23 25  1  0  0  0  0
 23 26  1  0  0  0  0
M  END
> <VM2 Rank>
65

> <Conf_Id>
546

> <Probability>
0.47

> <Sum Probability>
89.61

> <Delta G>
1.590

> <G>
77.056

> <E>
44.546

> <-TS>
32.510

> <U+W>
23.084

> <U>
72.298

> <W>
-49.214

> <W(PB)>
-51.498

> <W(SA)>
2.284

> <Valence>
2.869

> <Coulomb>
68.765

> <VdW>
0.664

> <VdW6>
-7.141

> <VdW12>
7.805

> <Bond>
0.231

> <Angle>
0.882

> <Pdih>
1.756

> <Idih>
0.000

> <Tether>
0.000

$$$$
VeraChem MOL file


 26 25  0  0  0  0  0  0  0  0999 V2000     
   19.4891   18.6617   25.8530 N   0  3  0  0  0  0  0  0  0  0  0  0
   20.0519   17.9295   26.3133 H   0  0  0  0  0  0  0  0  0  0  0  0
   18.6348   18.1857   25.5244 H   0  0  0  0  0  0  0  0  0  0  0  0
   20.2489   19.2436   24.6781 C   0  0  0  0  0  0  0  0  0  0  0  0
   21.1497   19.7257   25.0661 H   0  0  0  0  0  0  0  0  0  0  0  0
   19.6183   20.0090   24.2195 H   0  0  0  0  0  0  0  0  0  0  0  0
   20.6383   18.1911   23.6226 C   0  0  0  0  0  0  0  0  0  0  0  0
   21.2415   17.4082   24.1010 H   0  0  0  0  0  0  0  0  0  0  0  0
   19.7354   17.6958   23.2432 H   0  0  0  0  0  0  0  0  0  0  0  0
   21.4448   18.7952   22.4463 C   0  0  0  0  0  0  0  0  0  0  0  0
   21.7065   17.9945   21.7417 H   0  0  0  0  0  0  0  0  0  0  0  0
   22.4016   19.1752   22.8304 H   0  0  0  0  0  0  0  0  0  0  0  0
   20.7267   19.9423   21.6851 C   0  0  0  0  0  0  0  0  0  0  0  0
   20.6167   20.8091   22.3506 H   0  0  0  0  0  0  0  0  0  0  0  0
   21.3769   20.2805   20.8665 H   0  0  0  0  0  0  0  0  0  0  0  0
   19.3374   19.5784   21.1020 C   0  0  0  0  0  0  0  0  0  0  0  0
   18.9249   20.4653   20.6008 H   0  0  0  0  0  0  0  0  0  0  0  0
   18.6361   19.3384   21.9123 H   0  0  0  0  0  0  0  0  0  0  0  0
   19.3840   18.4118   20.0893 C   0  0  0  0  0  0  0  0  0  0  0  0
   19.6875   17.4734   20.5698 H   0  0  0  0  0  0  0  0  0  0  0  0
   20.0884   18.6244   19.2747 H   0  0  0  0  0  0  0  0  0  0  0  0
   18.3942   18.2497   19.6433 H   0  0  0  0  0  0  0  0  0  0  0  0
   19.1387   19.7660   26.8407 C   0  0  0  0  0  0  0  0  0  0  0  0
   18.5164   20.5112   26.3404 H   0  0  0  0  0  0  0  0  0  0  0  0
   18.5924   19.3338   27.6821 H   0  0  0  0  0  0  0  0  0  0  0  0
   20.0590   20.2325   27.1991 H   0  0  0  0  0  0  0  0  0  0  0  0
  1  2  1  0  0  0  0
  1  3  1  0  0  0  0
  1  4  1  0  0  0  0
  4  5  1  0  0  0  0
  4  6  1  0  0  0  0
  4  7  1  0  0  0  0
  7  8  1  0  0  0  0
  7  9  1  0  0  0  0
  7 10  1  0  0  0  0
 10 11  1  0  0  0  0
 10 12  1  0  0  0  0
 10 13  1  0  0  0  0
 13 14  1  0  0  0  0
 13 15  1  0  0  0  0
 13 16  1  0  0  0  0
 16 17  1  0  0  0  0
 16 18  1  0  0  0  0
 16 19  1  0  0  0  0
 19 20  1  0  0  0  0
 19 21  1  0  0  0  0
 19 22  1  0  0  0  0
  1 23  1  0  0  0  0
 23 24  1  0  0  0  0
 23 25  1  0  0  0  0
 23 26  1  0  0  0  0
M  END
> <VM2 Rank>
66

> <Conf_Id>
1014

> <Probability>
0.40

> <Sum Probability>
90.01

> <Delta G>
1.692

> <G>
77.158

> <E>
44.330

> <-TS>
32.828

> <U+W>
22.868

> <U>
72.455

> <W>
-49.587

> <W(PB)>
-51.821

> <W(SA)>
2.234

> <Valence>
2.908

> <Coulomb>
69.435

> <VdW>
0.112

> <VdW6>
-7.765

> <VdW12>
7.877

> <Bond>
0.233

> <Angle>
1.170

> <Pdih>
1.506

> <Idih>
0.000

> <Tether>
0.000

$$$$
VeraChem MOL file


 26 25  0  0  0  0  0  0  0  0999 V2000     
   20.2798   18.9165   25.6473 N   0  3  0  0  0  0  0  0  0  0  0  0
   20.9375   18.2769   25.1769 H   0  0  0  0  0  0  0  0  0  0  0  0
   19.6995   18.3185   26.2557 H   0  0  0  0  0  0  0  0  0  0  0  0
   19.4106   19.6132   24.6189 C   0  0  0  0  0  0  0  0  0  0  0  0
   20.0569   20.2420   24.0019 H   0  0  0  0  0  0  0  0  0  0  0  0
   18.7166   20.2636   25.1574 H   0  0  0  0  0  0  0  0  0  0  0  0
   18.6146   18.6458   23.7191 C   0  0  0  0  0  0  0  0  0  0  0  0
   17.9393   18.0466   24.3442 H   0  0  0  0  0  0  0  0  0  0  0  0
   17.9659   19.2326   23.0564 H   0  0  0  0  0  0  0  0  0  0  0  0
   19.5036   17.6967   22.8729 C   0  0  0  0  0  0  0  0  0  0  0  0
   18.8559   17.0858   22.2290 H   0  0  0  0  0  0  0  0  0  0  0  0
   20.0126   16.9868   23.5387 H   0  0  0  0  0  0  0  0  0  0  0  0
   20.5654   18.4074   21.9938 C   0  0  0  0  0  0  0  0  0  0  0  0
   21.2818   18.9458   22.6285 H   0  0  0  0  0  0  0  0  0  0  0  0
   21.1475   17.6397   21.4655 H   0  0  0  0  0  0  0  0  0  0  0  0
   19.9574   19.3793   20.9551 C   0  0  0  0  0  0  0  0  0  0  0  0
   19.4274   20.1954   21.4642 H   0  0  0  0  0  0  0  0  0  0  0  0
   19.2141   18.8501   20.3424 H   0  0  0  0  0  0  0  0  0  0  0  0
   21.0416   19.9827   20.0369 C   0  0  0  0  0  0  0  0  0  0  0  0
   21.7836   20.5447   20.6189 H   0  0  0  0  0  0  0  0  0  0  0  0
   20.5936   20.6709   19.3084 H   0  0  0  0  0  0  0  0  0  0  0  0
   21.5683   19.1979   19.4784 H   0  0  0  0  0  0  0  0  0  0  0  0
   21.0350   19.9484   26.4729 C   0  0  0  0  0  0  0  0  0  0  0  0
   20.3175   20.5937   26.9845 H   0  0  0  0  0  0  0  0  0  0  0  0
   21.6573   19.4333   27.2081 H   0  0  0  0  0  0  0  0  0  0  0  0
   21.6648   20.5469   25.8110 H   0  0  0  0  0  0  0  0  0  0  0  0
  1  2  1  0  0  0  0
  1  3  1  0  0  0  0
  1  4  1  0  0  0  0
  4  5  1  0  0  0  0
  4  6  1  0  0  0  0
  4  7  1  0  0  0  0
  7  8  1  0  0  0  0
  7  9  1  0  0  0  0
  7 10  1  0  0  0  0
 10 11  1  0  0  0  0
 10 12  1  0  0  0  0
 10 13  1  0  0  0  0
 13 14  1  0  0  0  0
 13 15  1  0  0  0  0
 13 16  1  0  0  0  0
 16 17  1  0  0  0  0
 16 18  1  0  0  0  0
 16 19  1  0  0  0  0
 19 20  1  0  0  0  0
 19 21  1  0  0  0  0
 19 22  1  0  0  0  0
  1 23  1  0  0  0  0
 23 24  1  0  0  0  0
 23 25  1  0  0  0  0
 23 26  1  0  0  0  0
M  END
> <VM2 Rank>
67

> <Conf_Id>
246

> <Probability>
0.38

> <Sum Probability>
90.39

> <Delta G>
1.715

> <G>
77.181

> <E>
44.473

> <-TS>
32.708

> <U+W>
23.011

> <U>
72.452

> <W>
-49.441

> <W(PB)>
-51.701

> <W(SA)>
2.259

> <Valence>
2.611

> <Coulomb>
69.807

> <VdW>
0.035

> <VdW6>
-7.730

> <VdW12>
7.765

> <Bond>
0.213

> <Angle>
0.953

> <Pdih>
1.445

> <Idih>
0.000

> <Tether>
0.000

$$$$
VeraChem MOL file


 26 25  0  0  0  0  0  0  0  0999 V2000     
   19.7716   18.8271   25.9222 N   0  3  0  0  0  0  0  0  0  0  0  0
   20.2987   17.9559   26.0889 H   0  0  0  0  0  0  0  0  0  0  0  0
   18.8634   18.5307   25.5345 H   0  0  0  0  0  0  0  0  0  0  0  0
   20.5067   19.6980   24.9215 C   0  0  0  0  0  0  0  0  0  0  0  0
   21.4584   19.9870   25.3746 H   0  0  0  0  0  0  0  0  0  0  0  0
   19.9155   20.6034   24.7631 H   0  0  0  0  0  0  0  0  0  0  0  0
   20.7744   19.0099   23.5684 C   0  0  0  0  0  0  0  0  0  0  0  0
   21.4088   19.6762   22.9707 H   0  0  0  0  0  0  0  0  0  0  0  0
   21.3506   18.0897   23.7321 H   0  0  0  0  0  0  0  0  0  0  0  0
   19.4722   18.6918   22.7912 C   0  0  0  0  0  0  0  0  0  0  0  0
   18.9104   19.6185   22.6140 H   0  0  0  0  0  0  0  0  0  0  0  0
   18.8226   18.0592   23.4102 H   0  0  0  0  0  0  0  0  0  0  0  0
   19.7162   17.9560   21.4479 C   0  0  0  0  0  0  0  0  0  0  0  0
   20.1833   16.9829   21.6532 H   0  0  0  0  0  0  0  0  0  0  0  0
   18.7436   17.7304   20.9891 H   0  0  0  0  0  0  0  0  0  0  0  0
   20.5878   18.7209   20.4189 C   0  0  0  0  0  0  0  0  0  0  0  0
   20.6828   18.1035   19.5147 H   0  0  0  0  0  0  0  0  0  0  0  0
   21.6088   18.8461   20.8035 H   0  0  0  0  0  0  0  0  0  0  0  0
   20.0068   20.0970   20.0220 C   0  0  0  0  0  0  0  0  0  0  0  0
   20.6082   20.5530   19.2250 H   0  0  0  0  0  0  0  0  0  0  0  0
   20.0028   20.7921   20.8708 H   0  0  0  0  0  0  0  0  0  0  0  0
   18.9779   19.9993   19.6521 H   0  0  0  0  0  0  0  0  0  0  0  0
   19.5724   19.5893   27.2248 C   0  0  0  0  0  0  0  0  0  0  0  0
   19.0423   18.9515   27.9357 H   0  0  0  0  0  0  0  0  0  0  0  0
   20.5476   19.8647   27.6324 H   0  0  0  0  0  0  0  0  0  0  0  0
   18.9858   20.4895   27.0281 H   0  0  0  0  0  0  0  0  0  0  0  0
  1  2  1  0  0  0  0
  1  3  1  0  0  0  0
  1  4  1  0  0  0  0
  4  5  1  0  0  0  0
  4  6  1  0  0  0  0
  4  7  1  0  0  0  0
  7  8  1  0  0  0  0
  7  9  1  0  0  0  0
  7 10  1  0  0  0  0
 10 11  1  0  0  0  0
 10 12  1  0  0  0  0
 10 13  1  0  0  0  0
 13 14  1  0  0  0  0
 13 15  1  0  0  0  0
 13 16  1  0  0  0  0
 16 17  1  0  0  0  0
 16 18  1  0  0  0  0
 16 19  1  0  0  0  0
 19 20  1  0  0  0  0
 19 21  1  0  0  0  0
 19 22  1  0  0  0  0
  1 23  1  0  0  0  0
 23 24  1  0  0  0  0
 23 25  1  0  0  0  0
 23 26  1  0  0  0  0
M  END
> <VM2 Rank>
68

> <Conf_Id>
1598

> <Probability>
0.38

> <Sum Probability>
90.77

> <Delta G>
1.728

> <G>
77.194

> <E>
44.524

> <-TS>
32.670

> <U+W>
23.062

> <U>
72.391

> <W>
-49.329

> <W(PB)>
-51.594

> <W(SA)>
2.265

> <Valence>
2.830

> <Coulomb>
69.222

> <VdW>
0.340

> <VdW6>
-7.379

> <VdW12>
7.718

> <Bond>
0.228

> <Angle>
1.104

> <Pdih>
1.497

> <Idih>
0.000

> <Tether>
0.000

$$$$
VeraChem MOL file


 26 25  0  0  0  0  0  0  0  0999 V2000     
   19.6954   18.8553   25.6264 N   0  3  0  0  0  0  0  0  0  0  0  0
   20.3428   18.3858   26.2783 H   0  0  0  0  0  0  0  0  0  0  0  0
   19.2187   18.0970   25.1159 H   0  0  0  0  0  0  0  0  0  0  0  0
   20.4716   19.7242   24.6563 C   0  0  0  0  0  0  0  0  0  0  0  0
   20.9766   20.5001   25.2372 H   0  0  0  0  0  0  0  0  0  0  0  0
   19.7540   20.2102   23.9909 H   0  0  0  0  0  0  0  0  0  0  0  0
   21.5113   18.9489   23.8216 C   0  0  0  0  0  0  0  0  0  0  0  0
   22.0695   19.6620   23.2015 H   0  0  0  0  0  0  0  0  0  0  0  0
   22.2505   18.4978   24.4968 H   0  0  0  0  0  0  0  0  0  0  0  0
   20.8993   17.8426   22.9222 C   0  0  0  0  0  0  0  0  0  0  0  0
   20.5029   17.0379   23.5559 H   0  0  0  0  0  0  0  0  0  0  0  0
   21.7027   17.3837   22.3297 H   0  0  0  0  0  0  0  0  0  0  0  0
   19.7775   18.3248   21.9659 C   0  0  0  0  0  0  0  0  0  0  0  0
   19.4053   17.4572   21.4037 H   0  0  0  0  0  0  0  0  0  0  0  0
   18.9226   18.6984   22.5451 H   0  0  0  0  0  0  0  0  0  0  0  0
   20.2422   19.4093   20.9654 C   0  0  0  0  0  0  0  0  0  0  0  0
   21.1198   19.0500   20.4099 H   0  0  0  0  0  0  0  0  0  0  0  0
   20.5549   20.3135   21.5044 H   0  0  0  0  0  0  0  0  0  0  0  0
   19.1234   19.7821   19.9694 C   0  0  0  0  0  0  0  0  0  0  0  0
   18.8109   18.9095   19.3811 H   0  0  0  0  0  0  0  0  0  0  0  0
   19.4690   20.5536   19.2691 H   0  0  0  0  0  0  0  0  0  0  0  0
   18.2423   20.1739   20.4942 H   0  0  0  0  0  0  0  0  0  0  0  0
   18.6873   19.7028   26.3897 C   0  0  0  0  0  0  0  0  0  0  0  0
   18.1351   19.0648   27.0833 H   0  0  0  0  0  0  0  0  0  0  0  0
   19.2184   20.4787   26.9454 H   0  0  0  0  0  0  0  0  0  0  0  0
   17.9953   20.1630   25.6810 H   0  0  0  0  0  0  0  0  0  0  0  0
  1  2  1  0  0  0  0
  1  3  1  0  0  0  0
  1  4  1  0  0  0  0
  4  5  1  0  0  0  0
  4  6  1  0  0  0  0
  4  7  1  0  0  0  0
  7  8  1  0  0  0  0
  7  9  1  0  0  0  0
  7 10  1  0  0  0  0
 10 11  1  0  0  0  0
 10 12  1  0  0  0  0
 10 13  1  0  0  0  0
 13 14  1  0  0  0  0
 13 15  1  0  0  0  0
 13 16  1  0  0  0  0
 16 17  1  0  0  0  0
 16 18  1  0  0  0  0
 16 19  1  0  0  0  0
 19 20  1  0  0  0  0
 19 21  1  0  0  0  0
 19 22  1  0  0  0  0
  1 23  1  0  0  0  0
 23 24  1  0  0  0  0
 23 25  1  0  0  0  0
 23 26  1  0  0  0  0
M  END
> <VM2 Rank>
69

> <Conf_Id>
411

> <Probability>
0.37

> <Sum Probability>
91.14

> <Delta G>
1.735

> <G>
77.201

> <E>
44.493

> <-TS>
32.709

> <U+W>
23.031

> <U>
72.453

> <W>
-49.422

> <W(PB)>
-51.690

> <W(SA)>
2.268

> <Valence>
2.611

> <Coulomb>
69.807

> <VdW>
0.035

> <VdW6>
-7.730

> <VdW12>
7.765

> <Bond>
0.213

> <Angle>
0.953

> <Pdih>
1.445

> <Idih>
0.000

> <Tether>
0.000

$$$$
VeraChem MOL file


 26 25  0  0  0  0  0  0  0  0999 V2000     
   20.5039   18.7657   25.8888 N   0  3  0  0  0  0  0  0  0  0  0  0
   21.4578   18.4750   25.6242 H   0  0  0  0  0  0  0  0  0  0  0  0
   20.0704   17.9313   26.3138 H   0  0  0  0  0  0  0  0  0  0  0  0
   19.7260   19.1900   24.6595 C   0  0  0  0  0  0  0  0  0  0  0  0
   20.2190   20.0706   24.2408 H   0  0  0  0  0  0  0  0  0  0  0  0
   18.7214   19.4769   24.9801 H   0  0  0  0  0  0  0  0  0  0  0  0
   19.6328   18.0881   23.5870 C   0  0  0  0  0  0  0  0  0  0  0  0
   20.6415   17.7887   23.2752 H   0  0  0  0  0  0  0  0  0  0  0  0
   19.1687   17.1958   24.0276 H   0  0  0  0  0  0  0  0  0  0  0  0
   18.8050   18.5248   22.3528 C   0  0  0  0  0  0  0  0  0  0  0  0
   17.7666   18.7004   22.6662 H   0  0  0  0  0  0  0  0  0  0  0  0
   18.7608   17.6927   21.6374 H   0  0  0  0  0  0  0  0  0  0  0  0
   19.3274   19.7990   21.6355 C   0  0  0  0  0  0  0  0  0  0  0  0
   18.6812   20.0043   20.7709 H   0  0  0  0  0  0  0  0  0  0  0  0
   19.2127   20.6653   22.3008 H   0  0  0  0  0  0  0  0  0  0  0  0
   20.7990   19.7282   21.1537 C   0  0  0  0  0  0  0  0  0  0  0  0
   21.4758   19.6296   22.0130 H   0  0  0  0  0  0  0  0  0  0  0  0
   21.0573   20.6837   20.6762 H   0  0  0  0  0  0  0  0  0  0  0  0
   21.0608   18.5834   20.1489 C   0  0  0  0  0  0  0  0  0  0  0  0
   20.9209   17.5997   20.6139 H   0  0  0  0  0  0  0  0  0  0  0  0
   22.0916   18.6284   19.7745 H   0  0  0  0  0  0  0  0  0  0  0  0
   20.3866   18.6545   19.2855 H   0  0  0  0  0  0  0  0  0  0  0  0
   20.5532   19.9108   26.8908 C   0  0  0  0  0  0  0  0  0  0  0  0
   21.0451   20.7703   26.4301 H   0  0  0  0  0  0  0  0  0  0  0  0
   19.5348   20.1786   27.1806 H   0  0  0  0  0  0  0  0  0  0  0  0
   21.1156   19.5922   27.7714 H   0  0  0  0  0  0  0  0  0  0  0  0
  1  2  1  0  0  0  0
  1  3  1  0  0  0  0
  1  4  1  0  0  0  0
  4  5  1  0  0  0  0
  4  6  1  0  0  0  0
  4  7  1  0  0  0  0
  7  8  1  0  0  0  0
  7  9  1  0  0  0  0
  7 10  1  0  0  0  0
 10 11  1  0  0  0  0
 10 12  1  0  0  0  0
 10 13  1  0  0  0  0
 13 14  1  0  0  0  0
 13 15  1  0  0  0  0
 13 16  1  0  0  0  0
 16 17  1  0  0  0  0
 16 18  1  0  0  0  0
 16 19  1  0  0  0  0
 19 20  1  0  0  0  0
 19 21  1  0  0  0  0
 19 22  1  0  0  0  0
  1 23  1  0  0  0  0
 23 24  1  0  0  0  0
 23 25  1  0  0  0  0
 23 26  1  0  0  0  0
M  END
> <VM2 Rank>
70

> <Conf_Id>
382

> <Probability>
0.36

> <Sum Probability>
91.50

> <Delta G>
1.758

> <G>
77.224

> <E>
44.395

> <-TS>
32.829

> <U+W>
22.933

> <U>
72.455

> <W>
-49.521

> <W(PB)>
-51.800

> <W(SA)>
2.278

> <Valence>
2.908

> <Coulomb>
69.435

> <VdW>
0.111

> <VdW6>
-7.765

> <VdW12>
7.877

> <Bond>
0.233

> <Angle>
1.170

> <Pdih>
1.506

> <Idih>
0.000

> <Tether>
0.000

$$$$
VeraChem MOL file


 26 25  0  0  0  0  0  0  0  0999 V2000     
   20.1903   18.8706   25.9371 N   0  3  0  0  0  0  0  0  0  0  0  0
   21.1649   18.7699   25.6161 H   0  0  0  0  0  0  0  0  0  0  0  0
   19.8430   17.9085   26.0726 H   0  0  0  0  0  0  0  0  0  0  0  0
   19.3641   19.5794   24.8811 C   0  0  0  0  0  0  0  0  0  0  0  0
   19.7665   20.5880   24.7579 H   0  0  0  0  0  0  0  0  0  0  0  0
   18.3439   19.6637   25.2644 H   0  0  0  0  0  0  0  0  0  0  0  0
   19.3385   18.8609   23.5176 C   0  0  0  0  0  0  0  0  0  0  0  0
   18.9534   17.8408   23.6472 H   0  0  0  0  0  0  0  0  0  0  0  0
   18.6242   19.3872   22.8722 H   0  0  0  0  0  0  0  0  0  0  0  0
   20.7293   18.8225   22.8357 C   0  0  0  0  0  0  0  0  0  0  0  0
   21.4501   18.3323   23.5032 H   0  0  0  0  0  0  0  0  0  0  0  0
   21.0999   19.8461   22.6913 H   0  0  0  0  0  0  0  0  0  0  0  0
   20.7362   18.0620   21.4840 C   0  0  0  0  0  0  0  0  0  0  0  0
   21.7639   18.0442   21.0959 H   0  0  0  0  0  0  0  0  0  0  0  0
   20.4656   17.0122   21.6633 H   0  0  0  0  0  0  0  0  0  0  0  0
   19.8001   18.6390   20.3911 C   0  0  0  0  0  0  0  0  0  0  0  0
   18.7509   18.5492   20.7025 H   0  0  0  0  0  0  0  0  0  0  0  0
   19.8973   18.0217   19.4870 H   0  0  0  0  0  0  0  0  0  0  0  0
   20.1125   20.1079   20.0256 C   0  0  0  0  0  0  0  0  0  0  0  0
   19.4874   20.4364   19.1853 H   0  0  0  0  0  0  0  0  0  0  0  0
   21.1628   20.2261   19.7290 H   0  0  0  0  0  0  0  0  0  0  0  0
   19.9145   20.7829   20.8675 H   0  0  0  0  0  0  0  0  0  0  0  0
   20.1370   19.6478   27.2450 C   0  0  0  0  0  0  0  0  0  0  0  0
   19.0999   19.7141   27.5812 H   0  0  0  0  0  0  0  0  0  0  0  0
   20.7356   19.1271   27.9958 H   0  0  0  0  0  0  0  0  0  0  0  0
   20.5386   20.6506   27.0835 H   0  0  0  0  0  0  0  0  0  0  0  0
  1  2  1  0  0  0  0
  1  3  1  0  0  0  0
  1  4  1  0  0  0  0
  4  5  1  0  0  0  0
  4  6  1  0  0  0  0
  4  7  1  0  0  0  0
  7  8  1  0  0  0  0
  7  9  1  0  0  0  0
  7 10  1  0  0  0  0
 10 11  1  0  0  0  0
 10 12  1  0  0  0  0
 10 13  1  0  0  0  0
 13 14  1  0  0  0  0
 13 15  1  0  0  0  0
 13 16  1  0  0  0  0
 16 17  1  0  0  0  0
 16 18  1  0  0  0  0
 16 19  1  0  0  0  0
 19 20  1  0  0  0  0
 19 21  1  0  0  0  0
 19 22  1  0  0  0  0
  1 23  1  0  0  0  0
 23 24  1  0  0  0  0
 23 25  1  0  0  0  0
 23 26  1  0  0  0  0
M  END
> <VM2 Rank>
71

> <Conf_Id>
735

> <Probability>
0.34

> <Sum Probability>
91.84

> <Delta G>
1.797

> <G>
77.263

> <E>
44.593

> <-TS>
32.670

> <U+W>
23.131

> <U>
72.391

> <W>
-49.260

> <W(PB)>
-51.510

> <W(SA)>
2.250

> <Valence>
2.830

> <Coulomb>
69.222

> <VdW>
0.339

> <VdW6>
-7.379

> <VdW12>
7.718

> <Bond>
0.228

> <Angle>
1.104

> <Pdih>
1.497

> <Idih>
0.000

> <Tether>
0.000

$$$$
VeraChem MOL file


 26 25  0  0  0  0  0  0  0  0999 V2000     
   20.5055   19.4039   25.6187 N   0  3  0  0  0  0  0  0  0  0  0  0
   20.9489   19.9674   24.8778 H   0  0  0  0  0  0  0  0  0  0  0  0
   21.2557   18.8062   25.9990 H   0  0  0  0  0  0  0  0  0  0  0  0
   19.4044   18.5458   25.0273 C   0  0  0  0  0  0  0  0  0  0  0  0
   18.6299   19.2117   24.6398 H   0  0  0  0  0  0  0  0  0  0  0  0
   18.9701   17.9580   25.8400 H   0  0  0  0  0  0  0  0  0  0  0  0
   19.8847   17.5969   23.9095 C   0  0  0  0  0  0  0  0  0  0  0  0
   20.6195   16.8953   24.3263 H   0  0  0  0  0  0  0  0  0  0  0  0
   19.0345   16.9865   23.5771 H   0  0  0  0  0  0  0  0  0  0  0  0
   20.5039   18.3189   22.6858 C   0  0  0  0  0  0  0  0  0  0  0  0
   20.8352   17.5537   21.9720 H   0  0  0  0  0  0  0  0  0  0  0  0
   21.4076   18.8636   22.9900 H   0  0  0  0  0  0  0  0  0  0  0  0
   19.5178   19.2886   21.9856 C   0  0  0  0  0  0  0  0  0  0  0  0
   18.6266   18.7366   21.6566 H   0  0  0  0  0  0  0  0  0  0  0  0
   19.1671   20.0404   22.7048 H   0  0  0  0  0  0  0  0  0  0  0  0
   20.1384   20.0329   20.7782 C   0  0  0  0  0  0  0  0  0  0  0  0
   21.0236   20.5971   21.1036 H   0  0  0  0  0  0  0  0  0  0  0  0
   19.4164   20.7779   20.4156 H   0  0  0  0  0  0  0  0  0  0  0  0
   20.5184   19.0991   19.6063 C   0  0  0  0  0  0  0  0  0  0  0  0
   20.8599   19.6856   18.7436 H   0  0  0  0  0  0  0  0  0  0  0  0
   19.6576   18.4991   19.2839 H   0  0  0  0  0  0  0  0  0  0  0  0
   21.3311   18.4155   19.8811 H   0  0  0  0  0  0  0  0  0  0  0  0
   19.9347   20.3039   26.7056 C   0  0  0  0  0  0  0  0  0  0  0  0
   19.1663   20.9477   26.2720 H   0  0  0  0  0  0  0  0  0  0  0  0
   19.4981   19.6844   27.4920 H   0  0  0  0  0  0  0  0  0  0  0  0
   20.7376   20.9166   27.1217 H   0  0  0  0  0  0  0  0  0  0  0  0
  1  2  1  0  0  0  0
  1  3  1  0  0  0  0
  1  4  1  0  0  0  0
  4  5  1  0  0  0  0
  4  6  1  0  0  0  0
  4  7  1  0  0  0  0
  7  8  1  0  0  0  0
  7  9  1  0  0  0  0
  7 10  1  0  0  0  0
 10 11  1  0  0  0  0
 10 12  1  0  0  0  0
 10 13  1  0  0  0  0
 13 14  1  0  0  0  0
 13 15  1  0  0  0  0
 13 16  1  0  0  0  0
 16 17  1  0  0  0  0
 16 18  1  0  0  0  0
 16 19  1  0  0  0  0
 19 20  1  0  0  0  0
 19 21  1  0  0  0  0
 19 22  1  0  0  0  0
  1 23  1  0  0  0  0
 23 24  1  0  0  0  0
 23 25  1  0  0  0  0
 23 26  1  0  0  0  0
M  END
> <VM2 Rank>
72

> <Conf_Id>
1201

> <Probability>
0.32

> <Sum Probability>
92.15

> <Delta G>
1.829

> <G>
77.295

> <E>
44.765

> <-TS>
32.530

> <U+W>
23.304

> <U>
72.579

> <W>
-49.275

> <W(PB)>
-51.539

> <W(SA)>
2.264

> <Valence>
2.677

> <Coulomb>
69.622

> <VdW>
0.280

> <VdW6>
-7.329

> <VdW12>
7.608

> <Bond>
0.212

> <Angle>
0.911

> <Pdih>
1.554

> <Idih>
0.000

> <Tether>
0.000

$$$$
VeraChem MOL file


 26 25  0  0  0  0  0  0  0  0999 V2000     
   19.5026   18.7312   25.7555 N   0  3  0  0  0  0  0  0  0  0  0  0
   19.5176   18.4210   26.7401 H   0  0  0  0  0  0  0  0  0  0  0  0
   19.0856   17.9459   25.2339 H   0  0  0  0  0  0  0  0  0  0  0  0
   20.9255   18.9781   25.2783 C   0  0  0  0  0  0  0  0  0  0  0  0
   21.5117   18.0897   25.5266 H   0  0  0  0  0  0  0  0  0  0  0  0
   21.3264   19.8166   25.8532 H   0  0  0  0  0  0  0  0  0  0  0  0
   21.0716   19.2702   23.7690 C   0  0  0  0  0  0  0  0  0  0  0  0
   20.5399   20.1979   23.5250 H   0  0  0  0  0  0  0  0  0  0  0  0
   22.1322   19.4541   23.5526 H   0  0  0  0  0  0  0  0  0  0  0  0
   20.5617   18.1060   22.8835 C   0  0  0  0  0  0  0  0  0  0  0  0
   19.4866   17.9538   23.0425 H   0  0  0  0  0  0  0  0  0  0  0  0
   21.0506   17.1748   23.2019 H   0  0  0  0  0  0  0  0  0  0  0  0
   20.8390   18.3125   21.3720 C   0  0  0  0  0  0  0  0  0  0  0  0
   21.9249   18.3471   21.2087 H   0  0  0  0  0  0  0  0  0  0  0  0
   20.4813   17.4296   20.8245 H   0  0  0  0  0  0  0  0  0  0  0  0
   20.1994   19.5804   20.7499 C   0  0  0  0  0  0  0  0  0  0  0  0
   20.4589   19.6147   19.6825 H   0  0  0  0  0  0  0  0  0  0  0  0
   20.6384   20.4839   21.1937 H   0  0  0  0  0  0  0  0  0  0  0  0
   18.6606   19.6259   20.8894 C   0  0  0  0  0  0  0  0  0  0  0  0
   18.1995   18.7220   20.4707 H   0  0  0  0  0  0  0  0  0  0  0  0
   18.2513   20.4911   20.3522 H   0  0  0  0  0  0  0  0  0  0  0  0
   18.3539   19.7142   21.9390 H   0  0  0  0  0  0  0  0  0  0  0  0
   18.6476   19.9859   25.6194 C   0  0  0  0  0  0  0  0  0  0  0  0
   18.5866   20.2687   24.5666 H   0  0  0  0  0  0  0  0  0  0  0  0
   17.6460   19.7792   26.0030 H   0  0  0  0  0  0  0  0  0  0  0  0
   19.1034   20.7945   26.1950 H   0  0  0  0  0  0  0  0  0  0  0  0
  1  2  1  0  0  0  0
  1  3  1  0  0  0  0
  1  4  1  0  0  0  0
  4  5  1  0  0  0  0
  4  6  1  0  0  0  0
  4  7  1  0  0  0  0
  7  8  1  0  0  0  0
  7  9  1  0  0  0  0
  7 10  1  0  0  0  0
 10 11  1  0  0  0  0
 10 12  1  0  0  0  0
 10 13  1  0  0  0  0
 13 14  1  0  0  0  0
 13 15  1  0  0  0  0
 13 16  1  0  0  0  0
 16 17  1  0  0  0  0
 16 18  1  0  0  0  0
 16 19  1  0  0  0  0
 19 20  1  0  0  0  0
 19 21  1  0  0  0  0
 19 22  1  0  0  0  0
  1 23  1  0  0  0  0
 23 24  1  0  0  0  0
 23 25  1  0  0  0  0
 23 26  1  0  0  0  0
M  END
> <VM2 Rank>
73

> <Conf_Id>
158

> <Probability>
0.30

> <Sum Probability>
92.45

> <Delta G>
1.871

> <G>
77.337

> <E>
44.374

> <-TS>
32.962

> <U+W>
22.913

> <U>
72.925

> <W>
-50.013

> <W(PB)>
-52.194

> <W(SA)>
2.182

> <Valence>
3.007

> <Coulomb>
69.582

> <VdW>
0.336

> <VdW6>
-8.608

> <VdW12>
8.943

> <Bond>
0.266

> <Angle>
1.183

> <Pdih>
1.559

> <Idih>
0.000

> <Tether>
0.000

$$$$
VeraChem MOL file


 26 25  0  0  0  0  0  0  0  0999 V2000     
   20.0345   19.2285   26.0796 N   0  3  0  0  0  0  0  0  0  0  0  0
   20.6536   19.7318   26.7348 H   0  0  0  0  0  0  0  0  0  0  0  0
   19.8572   18.3165   26.5282 H   0  0  0  0  0  0  0  0  0  0  0  0
   20.7495   19.0318   24.7537 C   0  0  0  0  0  0  0  0  0  0  0  0
   21.7424   18.6318   24.9744 H   0  0  0  0  0  0  0  0  0  0  0  0
   20.8740   20.0145   24.2925 H   0  0  0  0  0  0  0  0  0  0  0  0
   20.0317   18.0790   23.7747 C   0  0  0  0  0  0  0  0  0  0  0  0
   19.8720   17.1113   24.2681 H   0  0  0  0  0  0  0  0  0  0  0  0
   19.0354   18.4685   23.5324 H   0  0  0  0  0  0  0  0  0  0  0  0
   20.8350   17.8503   22.4704 C   0  0  0  0  0  0  0  0  0  0  0  0
   20.2829   17.1530   21.8263 H   0  0  0  0  0  0  0  0  0  0  0  0
   21.7771   17.3417   22.7178 H   0  0  0  0  0  0  0  0  0  0  0  0
   21.1639   19.1425   21.6745 C   0  0  0  0  0  0  0  0  0  0  0  0
   21.8591   19.7623   22.2566 H   0  0  0  0  0  0  0  0  0  0  0  0
   21.7105   18.8634   20.7632 H   0  0  0  0  0  0  0  0  0  0  0  0
   19.9371   20.0032   21.2783 C   0  0  0  0  0  0  0  0  0  0  0  0
   20.2924   20.8899   20.7349 H   0  0  0  0  0  0  0  0  0  0  0  0
   19.4338   20.3839   22.1772 H   0  0  0  0  0  0  0  0  0  0  0  0
   18.9208   19.2499   20.3904 C   0  0  0  0  0  0  0  0  0  0  0  0
   19.4043   18.8503   19.4895 H   0  0  0  0  0  0  0  0  0  0  0  0
   18.1169   19.9244   20.0687 H   0  0  0  0  0  0  0  0  0  0  0  0
   18.4559   18.4153   20.9296 H   0  0  0  0  0  0  0  0  0  0  0  0
   18.7355   20.0048   25.8953 C   0  0  0  0  0  0  0  0  0  0  0  0
   18.0612   19.4350   25.2530 H   0  0  0  0  0  0  0  0  0  0  0  0
   18.2698   20.1584   26.8714 H   0  0  0  0  0  0  0  0  0  0  0  0
   18.9569   20.9709   25.4366 H   0  0  0  0  0  0  0  0  0  0  0  0
  1  2  1  0  0  0  0
  1  3  1  0  0  0  0
  1  4  1  0  0  0  0
  4  5  1  0  0  0  0
  4  6  1  0  0  0  0
  4  7  1  0  0  0  0
  7  8  1  0  0  0  0
  7  9  1  0  0  0  0
  7 10  1  0  0  0  0
 10 11  1  0  0  0  0
 10 12  1  0  0  0  0
 10 13  1  0  0  0  0
 13 14  1  0  0  0  0
 13 15  1  0  0  0  0
 13 16  1  0  0  0  0
 16 17  1  0  0  0  0
 16 18  1  0  0  0  0
 16 19  1  0  0  0  0
 19 20  1  0  0  0  0
 19 21  1  0  0  0  0
 19 22  1  0  0  0  0
  1 23  1  0  0  0  0
 23 24  1  0  0  0  0
 23 25  1  0  0  0  0
 23 26  1  0  0  0  0
M  END
> <VM2 Rank>
74

> <Conf_Id>
1467

> <Probability>
0.29

> <Sum Probability>
92.74

> <Delta G>
1.879

> <G>
77.345

> <E>
44.338

> <-TS>
33.007

> <U+W>
22.876

> <U>
72.761

> <W>
-49.885

> <W(PB)>
-52.087

> <W(SA)>
2.202

> <Valence>
3.172

> <Coulomb>
69.298

> <VdW>
0.291

> <VdW6>
-8.615

> <VdW12>
8.906

> <Bond>
0.269

> <Angle>
1.270

> <Pdih>
1.633

> <Idih>
0.000

> <Tether>
0.000

$$$$
VeraChem MOL file


 26 25  0  0  0  0  0  0  0  0999 V2000     
   19.3770   19.2876   25.5788 N   0  3  0  0  0  0  0  0  0  0  0  0
   18.7395   18.5468   25.9097 H   0  0  0  0  0  0  0  0  0  0  0  0
   18.8811   19.7545   24.8047 H   0  0  0  0  0  0  0  0  0  0  0  0
   20.6684   18.6761   25.0720 C   0  0  0  0  0  0  0  0  0  0  0  0
   21.1555   18.1834   25.9173 H   0  0  0  0  0  0  0  0  0  0  0  0
   21.3161   19.4887   24.7349 H   0  0  0  0  0  0  0  0  0  0  0  0
   20.4710   17.6574   23.9302 C   0  0  0  0  0  0  0  0  0  0  0  0
   21.4488   17.2356   23.6625 H   0  0  0  0  0  0  0  0  0  0  0  0
   19.8674   16.8178   24.2997 H   0  0  0  0  0  0  0  0  0  0  0  0
   19.8047   18.2469   22.6611 C   0  0  0  0  0  0  0  0  0  0  0  0
   18.7900   18.5938   22.8974 H   0  0  0  0  0  0  0  0  0  0  0  0
   19.6871   17.4354   21.9314 H   0  0  0  0  0  0  0  0  0  0  0  0
   20.6189   19.4023   22.0245 C   0  0  0  0  0  0  0  0  0  0  0  0
   20.7577   20.2046   22.7610 H   0  0  0  0  0  0  0  0  0  0  0  0
   21.6247   19.0459   21.7628 H   0  0  0  0  0  0  0  0  0  0  0  0
   19.9457   20.0129   20.7713 C   0  0  0  0  0  0  0  0  0  0  0  0
   20.5240   20.8922   20.4548 H   0  0  0  0  0  0  0  0  0  0  0  0
   18.9434   20.3822   21.0297 H   0  0  0  0  0  0  0  0  0  0  0  0
   19.8475   19.0298   19.5824 C   0  0  0  0  0  0  0  0  0  0  0  0
   20.8331   18.6206   19.3255 H   0  0  0  0  0  0  0  0  0  0  0  0
   19.4547   19.5404   18.6936 H   0  0  0  0  0  0  0  0  0  0  0  0
   19.1743   18.1927   19.8044 H   0  0  0  0  0  0  0  0  0  0  0  0
   19.6749   20.2769   26.6967 C   0  0  0  0  0  0  0  0  0  0  0  0
   20.1724   19.7535   27.5161 H   0  0  0  0  0  0  0  0  0  0  0  0
   20.3246   21.0669   26.3135 H   0  0  0  0  0  0  0  0  0  0  0  0
   18.7370   20.7101   27.0513 H   0  0  0  0  0  0  0  0  0  0  0  0
  1  2  1  0  0  0  0
  1  3  1  0  0  0  0
  1  4  1  0  0  0  0
  4  5  1  0  0  0  0
  4  6  1  0  0  0  0
  4  7  1  0  0  0  0
  7  8  1  0  0  0  0
  7  9  1  0  0  0  0
  7 10  1  0  0  0  0
 10 11  1  0  0  0  0
 10 12  1  0  0  0  0
 10 13  1  0  0  0  0
 13 14  1  0  0  0  0
 13 15  1  0  0  0  0
 13 16  1  0  0  0  0
 16 17  1  0  0  0  0
 16 18  1  0  0  0  0
 16 19  1  0  0  0  0
 19 20  1  0  0  0  0
 19 21  1  0  0  0  0
 19 22  1  0  0  0  0
  1 23  1  0  0  0  0
 23 24  1  0  0  0  0
 23 25  1  0  0  0  0
 23 26  1  0  0  0  0
M  END
> <VM2 Rank>
75

> <Conf_Id>
139

> <Probability>
0.29

> <Sum Probability>
93.03

> <Delta G>
1.886

> <G>
77.352

> <E>
44.823

> <-TS>
32.530

> <U+W>
23.361

> <U>
72.579

> <W>
-49.218

> <W(PB)>
-51.496

> <W(SA)>
2.279

> <Valence>
2.678

> <Coulomb>
69.622

> <VdW>
0.279

> <VdW6>
-7.328

> <VdW12>
7.608

> <Bond>
0.212

> <Angle>
0.911

> <Pdih>
1.555

> <Idih>
0.000

> <Tether>
0.000

$$$$
VeraChem MOL file


 26 25  0  0  0  0  0  0  0  0999 V2000     
   20.4845   18.8339   25.7902 N   0  3  0  0  0  0  0  0  0  0  0  0
   21.0900   18.1554   25.3048 H   0  0  0  0  0  0  0  0  0  0  0  0
   20.4651   18.5203   26.7736 H   0  0  0  0  0  0  0  0  0  0  0  0
   19.0783   18.7851   25.2129 C   0  0  0  0  0  0  0  0  0  0  0  0
   18.4736   19.5187   25.7521 H   0  0  0  0  0  0  0  0  0  0  0  0
   18.6722   17.7930   25.4262 H   0  0  0  0  0  0  0  0  0  0  0  0
   18.9808   19.0516   23.6949 C   0  0  0  0  0  0  0  0  0  0  0  0
   17.9229   19.0139   23.4036 H   0  0  0  0  0  0  0  0  0  0  0  0
   19.3251   20.0709   23.4819 H   0  0  0  0  0  0  0  0  0  0  0  0
   19.7809   18.0242   22.8560 C   0  0  0  0  0  0  0  0  0  0  0  0
   19.4740   17.0099   23.1462 H   0  0  0  0  0  0  0  0  0  0  0  0
   20.8505   18.0964   23.0909 H   0  0  0  0  0  0  0  0  0  0  0  0
   19.5735   18.1800   21.3272 C   0  0  0  0  0  0  0  0  0  0  0  0
   20.1435   17.3941   20.8127 H   0  0  0  0  0  0  0  0  0  0  0  0
   18.5181   17.9905   21.0880 H   0  0  0  0  0  0  0  0  0  0  0  0
   19.9791   19.5572   20.7421 C   0  0  0  0  0  0  0  0  0  0  0  0
   19.3326   20.3472   21.1473 H   0  0  0  0  0  0  0  0  0  0  0  0
   19.7936   19.5449   19.6589 H   0  0  0  0  0  0  0  0  0  0  0  0
   21.4615   19.9190   20.9889 C   0  0  0  0  0  0  0  0  0  0  0  0
   21.7197   20.8541   20.4753 H   0  0  0  0  0  0  0  0  0  0  0  0
   22.1278   19.1331   20.6103 H   0  0  0  0  0  0  0  0  0  0  0  0
   21.6688   20.0613   22.0567 H   0  0  0  0  0  0  0  0  0  0  0  0
   21.0694   20.2390   25.7048 C   0  0  0  0  0  0  0  0  0  0  0  0
   20.4175   20.9319   26.2412 H   0  0  0  0  0  0  0  0  0  0  0  0
   22.0628   20.2408   26.1589 H   0  0  0  0  0  0  0  0  0  0  0  0
   21.1441   20.5359   24.6567 H   0  0  0  0  0  0  0  0  0  0  0  0
  1  2  1  0  0  0  0
  1  3  1  0  0  0  0
  1  4  1  0  0  0  0
  4  5  1  0  0  0  0
  4  6  1  0  0  0  0
  4  7  1  0  0  0  0
  7  8  1  0  0  0  0
  7  9  1  0  0  0  0
  7 10  1  0  0  0  0
 10 11  1  0  0  0  0
 10 12  1  0  0  0  0
 10 13  1  0  0  0  0
 13 14  1  0  0  0  0
 13 15  1  0  0  0  0
 13 16  1  0  0  0  0
 16 17  1  0  0  0  0
 16 18  1  0  0  0  0
 16 19  1  0  0  0  0
 19 20  1  0  0  0  0
 19 21  1  0  0  0  0
 19 22  1  0  0  0  0
  1 23  1  0  0  0  0
 23 24  1  0  0  0  0
 23 25  1  0  0  0  0
 23 26  1  0  0  0  0
M  END
> <VM2 Rank>
76

> <Conf_Id>
1345

> <Probability>
0.28

> <Sum Probability>
93.32

> <Delta G>
1.896

> <G>
77.362

> <E>
44.399

> <-TS>
32.963

> <U+W>
22.937

> <U>
72.926

> <W>
-49.989

> <W(PB)>
-52.181

> <W(SA)>
2.192

> <Valence>
3.007

> <Coulomb>
69.583

> <VdW>
0.336

> <VdW6>
-8.609

> <VdW12>
8.945

> <Bond>
0.266

> <Angle>
1.183

> <Pdih>
1.558

> <Idih>
0.000

> <Tether>
0.000

$$$$
VeraChem MOL file


 26 25  0  0  0  0  0  0  0  0999 V2000     
   19.8404   19.2083   26.0727 N   0  3  0  0  0  0  0  0  0  0  0  0
   20.1691   18.3488   26.5392 H   0  0  0  0  0  0  0  0  0  0  0  0
   19.0871   19.5693   26.6795 H   0  0  0  0  0  0  0  0  0  0  0  0
   19.2752   18.8789   24.7016 C   0  0  0  0  0  0  0  0  0  0  0  0
   18.9845   19.8184   24.2256 H   0  0  0  0  0  0  0  0  0  0  0  0
   18.3725   18.2823   24.8553 H   0  0  0  0  0  0  0  0  0  0  0  0
   20.2396   18.1004   23.7820 C   0  0  0  0  0  0  0  0  0  0  0  0
   21.1495   18.6875   23.6072 H   0  0  0  0  0  0  0  0  0  0  0  0
   20.5592   17.1823   24.2923 H   0  0  0  0  0  0  0  0  0  0  0  0
   19.5933   17.7216   22.4264 C   0  0  0  0  0  0  0  0  0  0  0  0
   18.7604   17.0292   22.6110 H   0  0  0  0  0  0  0  0  0  0  0  0
   20.3202   17.1568   21.8275 H   0  0  0  0  0  0  0  0  0  0  0  0
   19.0634   18.9249   21.6002 C   0  0  0  0  0  0  0  0  0  0  0  0
   18.6506   18.5465   20.6549 H   0  0  0  0  0  0  0  0  0  0  0  0
   18.2170   19.3849   22.1277 H   0  0  0  0  0  0  0  0  0  0  0  0
   20.1125   20.0214   21.2847 C   0  0  0  0  0  0  0  0  0  0  0  0
   20.4631   20.4905   22.2138 H   0  0  0  0  0  0  0  0  0  0  0  0
   19.6222   20.8205   20.7113 H   0  0  0  0  0  0  0  0  0  0  0  0
   21.3212   19.4987   20.4755 C   0  0  0  0  0  0  0  0  0  0  0  0
   21.9083   18.7732   21.0521 H   0  0  0  0  0  0  0  0  0  0  0  0
   21.9904   20.3259   20.2059 H   0  0  0  0  0  0  0  0  0  0  0  0
   20.9941   19.0150   19.5460 H   0  0  0  0  0  0  0  0  0  0  0  0
   20.9623   20.2358   25.9739 C   0  0  0  0  0  0  0  0  0  0  0  0
   20.5800   21.1393   25.4938 H   0  0  0  0  0  0  0  0  0  0  0  0
   21.3173   20.4745   26.9789 H   0  0  0  0  0  0  0  0  0  0  0  0
   21.7822   19.8210   25.3843 H   0  0  0  0  0  0  0  0  0  0  0  0
  1  2  1  0  0  0  0
  1  3  1  0  0  0  0
  1  4  1  0  0  0  0
  4  5  1  0  0  0  0
  4  6  1  0  0  0  0
  4  7  1  0  0  0  0
  7  8  1  0  0  0  0
  7  9  1  0  0  0  0
  7 10  1  0  0  0  0
 10 11  1  0  0  0  0
 10 12  1  0  0  0  0
 10 13  1  0  0  0  0
 13 14  1  0  0  0  0
 13 15  1  0  0  0  0
 13 16  1  0  0  0  0
 16 17  1  0  0  0  0
 16 18  1  0  0  0  0
 16 19  1  0  0  0  0
 19 20  1  0  0  0  0
 19 21  1  0  0  0  0
 19 22  1  0  0  0  0
  1 23  1  0  0  0  0
 23 24  1  0  0  0  0
 23 25  1  0  0  0  0
 23 26  1  0  0  0  0
M  END
> <VM2 Rank>
77

> <Conf_Id>
957

> <Probability>
0.28

> <Sum Probability>
93.60

> <Delta G>
1.900

> <G>
77.366

> <E>
44.359

> <-TS>
33.007

> <U+W>
22.897

> <U>
72.761

> <W>
-49.864

> <W(PB)>
-52.061

> <W(SA)>
2.196

> <Valence>
3.172

> <Coulomb>
69.298

> <VdW>
0.291

> <VdW6>
-8.615

> <VdW12>
8.906

> <Bond>
0.269

> <Angle>
1.270

> <Pdih>
1.633

> <Idih>
0.000

> <Tether>
0.000

$$$$
VeraChem MOL file


 26 25  0  0  0  0  0  0  0  0999 V2000     
   20.6782   18.9909   25.4034 N   0  3  0  0  0  0  0  0  0  0  0  0
   21.2853   19.0753   24.5743 H   0  0  0  0  0  0  0  0  0  0  0  0
   20.8740   18.0575   25.7971 H   0  0  0  0  0  0  0  0  0  0  0  0
   19.2226   19.0878   24.9904 C   0  0  0  0  0  0  0  0  0  0  0  0
   19.0539   20.0883   24.5851 H   0  0  0  0  0  0  0  0  0  0  0  0
   18.6143   18.9799   25.8920 H   0  0  0  0  0  0  0  0  0  0  0  0
   18.7963   18.0274   23.9542 C   0  0  0  0  0  0  0  0  0  0  0  0
   18.9181   17.0273   24.3911 H   0  0  0  0  0  0  0  0  0  0  0  0
   17.7231   18.1441   23.7531 H   0  0  0  0  0  0  0  0  0  0  0  0
   19.5778   18.1025   22.6183 C   0  0  0  0  0  0  0  0  0  0  0  0
   19.2085   17.3109   21.9519 H   0  0  0  0  0  0  0  0  0  0  0  0
   20.6366   17.8789   22.8001 H   0  0  0  0  0  0  0  0  0  0  0  0
   19.4352   19.4725   21.9078 C   0  0  0  0  0  0  0  0  0  0  0  0
   18.3681   19.7151   21.8085 H   0  0  0  0  0  0  0  0  0  0  0  0
   19.8772   20.2674   22.5233 H   0  0  0  0  0  0  0  0  0  0  0  0
   20.0795   19.5040   20.5008 C   0  0  0  0  0  0  0  0  0  0  0  0
   19.8420   20.4661   20.0256 H   0  0  0  0  0  0  0  0  0  0  0  0
   19.6272   18.7287   19.8667 H   0  0  0  0  0  0  0  0  0  0  0  0
   21.6149   19.3260   20.5250 C   0  0  0  0  0  0  0  0  0  0  0  0
   22.0309   19.4458   19.5163 H   0  0  0  0  0  0  0  0  0  0  0  0
   21.9001   18.3287   20.8820 H   0  0  0  0  0  0  0  0  0  0  0  0
   22.0893   20.0735   21.1739 H   0  0  0  0  0  0  0  0  0  0  0  0
   21.0035   20.0789   26.4171 C   0  0  0  0  0  0  0  0  0  0  0  0
   20.3694   19.9507   27.2971 H   0  0  0  0  0  0  0  0  0  0  0  0
   22.0542   19.9982   26.7047 H   0  0  0  0  0  0  0  0  0  0  0  0
   20.8182   21.0565   25.9666 H   0  0  0  0  0  0  0  0  0  0  0  0
  1  2  1  0  0  0  0
  1  3  1  0  0  0  0
  1  4  1  0  0  0  0
  4  5  1  0  0  0  0
  4  6  1  0  0  0  0
  4  7  1  0  0  0  0
  7  8  1  0  0  0  0
  7  9  1  0  0  0  0
  7 10  1  0  0  0  0
 10 11  1  0  0  0  0
 10 12  1  0  0  0  0
 10 13  1  0  0  0  0
 13 14  1  0  0  0  0
 13 15  1  0  0  0  0
 13 16  1  0  0  0  0
 16 17  1  0  0  0  0
 16 18  1  0  0  0  0
 16 19  1  0  0  0  0
 19 20  1  0  0  0  0
 19 21  1  0  0  0  0
 19 22  1  0  0  0  0
  1 23  1  0  0  0  0
 23 24  1  0  0  0  0
 23 25  1  0  0  0  0
 23 26  1  0  0  0  0
M  END
> <VM2 Rank>
78

> <Conf_Id>
702

> <Probability>
0.28

> <Sum Probability>
93.88

> <Delta G>
1.901

> <G>
77.367

> <E>
44.799

> <-TS>
32.567

> <U+W>
23.337

> <U>
72.650

> <W>
-49.313

> <W(PB)>
-51.570

> <W(SA)>
2.258

> <Valence>
2.607

> <Coulomb>
69.873

> <VdW>
0.170

> <VdW6>
-7.459

> <VdW12>
7.629

> <Bond>
0.205

> <Angle>
0.826

> <Pdih>
1.577

> <Idih>
0.000

> <Tether>
0.000

$$$$
VeraChem MOL file


 26 25  0  0  0  0  0  0  0  0999 V2000     
   19.7741   18.4167   25.5305 N   0  3  0  0  0  0  0  0  0  0  0  0
   20.3025   17.5751   25.2531 H   0  0  0  0  0  0  0  0  0  0  0  0
   18.8693   18.3497   25.0407 H   0  0  0  0  0  0  0  0  0  0  0  0
   20.5131   19.6655   25.0901 C   0  0  0  0  0  0  0  0  0  0  0  0
   21.4624   19.6951   25.6310 H   0  0  0  0  0  0  0  0  0  0  0  0
   19.9207   20.5326   25.3928 H   0  0  0  0  0  0  0  0  0  0  0  0
   20.7862   19.7275   23.5745 C   0  0  0  0  0  0  0  0  0  0  0  0
   21.4042   20.6114   23.3684 H   0  0  0  0  0  0  0  0  0  0  0  0
   21.3798   18.8527   23.2803 H   0  0  0  0  0  0  0  0  0  0  0  0
   19.4849   19.8052   22.7376 C   0  0  0  0  0  0  0  0  0  0  0  0
   18.8654   20.6295   23.1174 H   0  0  0  0  0  0  0  0  0  0  0  0
   18.8910   18.8925   22.8743 H   0  0  0  0  0  0  0  0  0  0  0  0
   19.7366   20.0407   21.2258 C   0  0  0  0  0  0  0  0  0  0  0  0
   18.7670   20.1222   20.7154 H   0  0  0  0  0  0  0  0  0  0  0  0
   20.2281   21.0143   21.0924 H   0  0  0  0  0  0  0  0  0  0  0  0
   20.5847   18.9522   20.5192 C   0  0  0  0  0  0  0  0  0  0  0  0
   21.6019   18.9352   20.9329 H   0  0  0  0  0  0  0  0  0  0  0  0
   20.6962   19.2283   19.4614 H   0  0  0  0  0  0  0  0  0  0  0  0
   19.9644   17.5389   20.6014 C   0  0  0  0  0  0  0  0  0  0  0  0
   19.9419   17.1685   21.6337 H   0  0  0  0  0  0  0  0  0  0  0  0
   20.5516   16.8263   20.0079 H   0  0  0  0  0  0  0  0  0  0  0  0
   18.9383   17.5350   20.2115 H   0  0  0  0  0  0  0  0  0  0  0  0
   19.5640   18.4433   27.0380 C   0  0  0  0  0  0  0  0  0  0  0  0
   18.9765   19.3250   27.3032 H   0  0  0  0  0  0  0  0  0  0  0  0
   19.0308   17.5396   27.3416 H   0  0  0  0  0  0  0  0  0  0  0  0
   20.5357   18.4828   27.5353 H   0  0  0  0  0  0  0  0  0  0  0  0
  1  2  1  0  0  0  0
  1  3  1  0  0  0  0
  1  4  1  0  0  0  0
  4  5  1  0  0  0  0
  4  6  1  0  0  0  0
  4  7  1  0  0  0  0
  7  8  1  0  0  0  0
  7  9  1  0  0  0  0
  7 10  1  0  0  0  0
 10 11  1  0  0  0  0
 10 12  1  0  0  0  0
 10 13  1  0  0  0  0
 13 14  1  0  0  0  0
 13 15  1  0  0  0  0
 13 16  1  0  0  0  0
 16 17  1  0  0  0  0
 16 18  1  0  0  0  0
 16 19  1  0  0  0  0
 19 20  1  0  0  0  0
 19 21  1  0  0  0  0
 19 22  1  0  0  0  0
  1 23  1  0  0  0  0
 23 24  1  0  0  0  0
 23 25  1  0  0  0  0
 23 26  1  0  0  0  0
M  END
> <VM2 Rank>
79

> <Conf_Id>
1781

> <Probability>
0.27

> <Sum Probability>
94.15

> <Delta G>
1.922

> <G>
77.388

> <E>
44.702

> <-TS>
32.686

> <U+W>
23.240

> <U>
72.709

> <W>
-49.469

> <W(PB)>
-51.721

> <W(SA)>
2.252

> <Valence>
2.790

> <Coulomb>
69.679

> <VdW>
0.240

> <VdW6>
-7.473

> <VdW12>
7.713

> <Bond>
0.222

> <Angle>
1.030

> <Pdih>
1.538

> <Idih>
0.000

> <Tether>
0.000

$$$$
VeraChem MOL file


 26 25  0  0  0  0  0  0  0  0999 V2000     
   19.3078   18.8488   25.3551 N   0  3  0  0  0  0  0  0  0  0  0  0
   19.2805   17.8922   25.7408 H   0  0  0  0  0  0  0  0  0  0  0  0
   18.7556   18.8131   24.4851 H   0  0  0  0  0  0  0  0  0  0  0  0
   20.7378   19.2449   25.0441 C   0  0  0  0  0  0  0  0  0  0  0  0
   21.2909   19.2575   25.9867 H   0  0  0  0  0  0  0  0  0  0  0  0
   20.7258   20.2617   24.6443 H   0  0  0  0  0  0  0  0  0  0  0  0
   21.4438   18.3020   24.0478 C   0  0  0  0  0  0  0  0  0  0  0  0
   22.4816   18.6376   23.9214 H   0  0  0  0  0  0  0  0  0  0  0  0
   21.4992   17.2950   24.4823 H   0  0  0  0  0  0  0  0  0  0  0  0
   20.7587   18.2251   22.6601 C   0  0  0  0  0  0  0  0  0  0  0  0
   19.7582   17.7879   22.7690 H   0  0  0  0  0  0  0  0  0  0  0  0
   21.3282   17.5310   22.0268 H   0  0  0  0  0  0  0  0  0  0  0  0
   20.6668   19.6004   21.9515 C   0  0  0  0  0  0  0  0  0  0  0  0
   20.0290   20.2831   22.5287 H   0  0  0  0  0  0  0  0  0  0  0  0
   21.6656   20.0575   21.9257 H   0  0  0  0  0  0  0  0  0  0  0  0
   20.1302   19.5094   20.5025 C   0  0  0  0  0  0  0  0  0  0  0  0
   20.7756   18.8483   19.9073 H   0  0  0  0  0  0  0  0  0  0  0  0
   20.1979   20.5033   20.0383 H   0  0  0  0  0  0  0  0  0  0  0  0
   18.6663   19.0198   20.4199 C   0  0  0  0  0  0  0  0  0  0  0  0
   18.5676   17.9826   20.7632 H   0  0  0  0  0  0  0  0  0  0  0  0
   18.3065   19.0591   19.3837 H   0  0  0  0  0  0  0  0  0  0  0  0
   18.0040   19.6491   21.0285 H   0  0  0  0  0  0  0  0  0  0  0  0
   18.6965   19.8396   26.3359 C   0  0  0  0  0  0  0  0  0  0  0  0
   18.7085   20.8377   25.8925 H   0  0  0  0  0  0  0  0  0  0  0  0
   17.6672   19.5432   26.5499 H   0  0  0  0  0  0  0  0  0  0  0  0
   19.2805   19.8375   27.2589 H   0  0  0  0  0  0  0  0  0  0  0  0
  1  2  1  0  0  0  0
  1  3  1  0  0  0  0
  1  4  1  0  0  0  0
  4  5  1  0  0  0  0
  4  6  1  0  0  0  0
  4  7  1  0  0  0  0
  7  8  1  0  0  0  0
  7  9  1  0  0  0  0
  7 10  1  0  0  0  0
 10 11  1  0  0  0  0
 10 12  1  0  0  0  0
 10 13  1  0  0  0  0
 13 14  1  0  0  0  0
 13 15  1  0  0  0  0
 13 16  1  0  0  0  0
 16 17  1  0  0  0  0
 16 18  1  0  0  0  0
 16 19  1  0  0  0  0
 19 20  1  0  0  0  0
 19 21  1  0  0  0  0
 19 22  1  0  0  0  0
  1 23  1  0  0  0  0
 23 24  1  0  0  0  0
 23 25  1  0  0  0  0
 23 26  1  0  0  0  0
M  END
> <VM2 Rank>
80

> <Conf_Id>
68

> <Probability>
0.26

> <Sum Probability>
94.41

> <Delta G>
1.941

> <G>
77.407

> <E>
44.839

> <-TS>
32.567

> <U+W>
23.378

> <U>
72.649

> <W>
-49.272

> <W(PB)>
-51.524

> <W(SA)>
2.252

> <Valence>
2.608

> <Coulomb>
69.872

> <VdW>
0.169

> <VdW6>
-7.459

> <VdW12>
7.628

> <Bond>
0.205

> <Angle>
0.826

> <Pdih>
1.577

> <Idih>
0.000

> <Tether>
0.000

$$$$
VeraChem MOL file


 26 25  0  0  0  0  0  0  0  0999 V2000     
   20.1256   18.9650   26.4275 N   0  3  0  0  0  0  0  0  0  0  0  0
   20.8158   18.2104   26.5632 H   0  0  0  0  0  0  0  0  0  0  0  0
   19.6840   19.0854   27.3529 H   0  0  0  0  0  0  0  0  0  0  0  0
   19.0656   18.5333   25.4232 C   0  0  0  0  0  0  0  0  0  0  0  0
   18.3602   19.3567   25.2865 H   0  0  0  0  0  0  0  0  0  0  0  0
   18.5239   17.7072   25.8912 H   0  0  0  0  0  0  0  0  0  0  0  0
   19.5897   18.0468   24.0533 C   0  0  0  0  0  0  0  0  0  0  0  0
   20.5564   17.5414   24.1791 H   0  0  0  0  0  0  0  0  0  0  0  0
   18.8916   17.2874   23.6768 H   0  0  0  0  0  0  0  0  0  0  0  0
   19.6969   19.1756   22.9997 C   0  0  0  0  0  0  0  0  0  0  0  0
   20.4038   19.9442   23.3333 H   0  0  0  0  0  0  0  0  0  0  0  0
   18.7209   19.6695   22.8951 H   0  0  0  0  0  0  0  0  0  0  0  0
   20.1501   18.6350   21.6242 C   0  0  0  0  0  0  0  0  0  0  0  0
   21.1246   18.1379   21.7281 H   0  0  0  0  0  0  0  0  0  0  0  0
   19.4400   17.8720   21.2763 H   0  0  0  0  0  0  0  0  0  0  0  0
   20.2554   19.7588   20.5691 C   0  0  0  0  0  0  0  0  0  0  0  0
   20.9672   20.5234   20.9106 H   0  0  0  0  0  0  0  0  0  0  0  0
   19.2824   20.2581   20.4602 H   0  0  0  0  0  0  0  0  0  0  0  0
   20.7079   19.2150   19.1971 C   0  0  0  0  0  0  0  0  0  0  0  0
   20.7768   20.0271   18.4617 H   0  0  0  0  0  0  0  0  0  0  0  0
   19.9968   18.4722   18.8126 H   0  0  0  0  0  0  0  0  0  0  0  0
   21.6949   18.7393   19.2667 H   0  0  0  0  0  0  0  0  0  0  0  0
   20.8168   20.2606   26.0229 C   0  0  0  0  0  0  0  0  0  0  0  0
   20.0631   21.0308   25.8453 H   0  0  0  0  0  0  0  0  0  0  0  0
   21.4832   20.5752   26.8291 H   0  0  0  0  0  0  0  0  0  0  0  0
   21.3997   20.0897   25.1165 H   0  0  0  0  0  0  0  0  0  0  0  0
  1  2  1  0  0  0  0
  1  3  1  0  0  0  0
  1  4  1  0  0  0  0
  4  5  1  0  0  0  0
  4  6  1  0  0  0  0
  4  7  1  0  0  0  0
  7  8  1  0  0  0  0
  7  9  1  0  0  0  0
  7 10  1  0  0  0  0
 10 11  1  0  0  0  0
 10 12  1  0  0  0  0
 10 13  1  0  0  0  0
 13 14  1  0  0  0  0
 13 15  1  0  0  0  0
 13 16  1  0  0  0  0
 16 17  1  0  0  0  0
 16 18  1  0  0  0  0
 16 19  1  0  0  0  0
 19 20  1  0  0  0  0
 19 21  1  0  0  0  0
 19 22  1  0  0  0  0
  1 23  1  0  0  0  0
 23 24  1  0  0  0  0
 23 25  1  0  0  0  0
 23 26  1  0  0  0  0
M  END
> <VM2 Rank>
81

> <Conf_Id>
1817

> <Probability>
0.26

> <Sum Probability>
94.68

> <Delta G>
1.943

> <G>
77.409

> <E>
45.185

> <-TS>
32.224

> <U+W>
23.724

> <U>
72.994

> <W>
-49.270

> <W(PB)>
-51.554

> <W(SA)>
2.284

> <Valence>
3.858

> <Coulomb>
68.737

> <VdW>
0.399

> <VdW6>
-6.843

> <VdW12>
7.242

> <Bond>
0.196

> <Angle>
0.972

> <Pdih>
2.691

> <Idih>
0.000

> <Tether>
0.000

$$$$
VeraChem MOL file


 26 25  0  0  0  0  0  0  0  0999 V2000     
   20.2925   18.4677   25.5487 N   0  3  0  0  0  0  0  0  0  0  0  0
   21.2251   18.5820   25.1242 H   0  0  0  0  0  0  0  0  0  0  0  0
   19.9591   17.5412   25.2407 H   0  0  0  0  0  0  0  0  0  0  0  0
   19.3569   19.5515   25.0489 C   0  0  0  0  0  0  0  0  0  0  0  0
   19.7461   20.5153   25.3866 H   0  0  0  0  0  0  0  0  0  0  0  0
   18.3845   19.3917   25.5216 H   0  0  0  0  0  0  0  0  0  0  0  0
   19.1841   19.5697   23.5175 C   0  0  0  0  0  0  0  0  0  0  0  0
   18.7947   18.5979   23.1884 H   0  0  0  0  0  0  0  0  0  0  0  0
   18.4215   20.3174   23.2626 H   0  0  0  0  0  0  0  0  0  0  0  0
   20.5007   19.9057   22.7736 C   0  0  0  0  0  0  0  0  0  0  0  0
   21.2503   19.1257   22.9582 H   0  0  0  0  0  0  0  0  0  0  0  0
   20.9191   20.8325   23.1902 H   0  0  0  0  0  0  0  0  0  0  0  0
   20.3148   20.0978   21.2462 C   0  0  0  0  0  0  0  0  0  0  0  0
   19.6531   20.9574   21.0718 H   0  0  0  0  0  0  0  0  0  0  0  0
   21.2832   20.3706   20.8047 H   0  0  0  0  0  0  0  0  0  0  0  0
   19.7475   18.8694   20.4895 C   0  0  0  0  0  0  0  0  0  0  0  0
   19.6591   19.1255   19.4245 H   0  0  0  0  0  0  0  0  0  0  0  0
   18.7266   18.6513   20.8307 H   0  0  0  0  0  0  0  0  0  0  0  0
   20.6245   17.6039   20.6253 C   0  0  0  0  0  0  0  0  0  0  0  0
   20.2311   16.7944   19.9970 H   0  0  0  0  0  0  0  0  0  0  0  0
   20.6458   17.2380   21.6593 H   0  0  0  0  0  0  0  0  0  0  0  0
   21.6565   17.8031   20.3090 H   0  0  0  0  0  0  0  0  0  0  0  0
   20.3870   18.5243   27.0671 C   0  0  0  0  0  0  0  0  0  0  0  0
   19.3938   18.3700   27.4946 H   0  0  0  0  0  0  0  0  0  0  0  0
   21.0636   17.7398   27.4134 H   0  0  0  0  0  0  0  0  0  0  0  0
   20.7713   19.5017   27.3668 H   0  0  0  0  0  0  0  0  0  0  0  0
  1  2  1  0  0  0  0
  1  3  1  0  0  0  0
  1  4  1  0  0  0  0
  4  5  1  0  0  0  0
  4  6  1  0  0  0  0
  4  7  1  0  0  0  0
  7  8  1  0  0  0  0
  7  9  1  0  0  0  0
  7 10  1  0  0  0  0
 10 11  1  0  0  0  0
 10 12  1  0  0  0  0
 10 13  1  0  0  0  0
 13 14  1  0  0  0  0
 13 15  1  0  0  0  0
 13 16  1  0  0  0  0
 16 17  1  0  0  0  0
 16 18  1  0  0  0  0
 16 19  1  0  0  0  0
 19 20  1  0  0  0  0
 19 21  1  0  0  0  0
 19 22  1  0  0  0  0
  1 23  1  0  0  0  0
 23 24  1  0  0  0  0
 23 25  1  0  0  0  0
 23 26  1  0  0  0  0
M  END
> <VM2 Rank>
82

> <Conf_Id>
1235

> <Probability>
0.25

> <Sum Probability>
94.93

> <Delta G>
1.964

> <G>
77.430

> <E>
44.743

> <-TS>
32.686

> <U+W>
23.281

> <U>
72.710

> <W>
-49.428

> <W(PB)>
-51.677

> <W(SA)>
2.249

> <Valence>
2.790

> <Coulomb>
69.680

> <VdW>
0.240

> <VdW6>
-7.473

> <VdW12>
7.714

> <Bond>
0.222

> <Angle>
1.030

> <Pdih>
1.538

> <Idih>
0.000

> <Tether>
0.000

$$$$
VeraChem MOL file


 26 25  0  0  0  0  0  0  0  0999 V2000     
   19.7808   18.9296   26.4154 N   0  3  0  0  0  0  0  0  0  0  0  0
   20.1229   19.1310   27.3684 H   0  0  0  0  0  0  0  0  0  0  0  0
   19.2508   18.0494   26.5082 H   0  0  0  0  0  0  0  0  0  0  0  0
   20.9740   18.7296   25.4907 C   0  0  0  0  0  0  0  0  0  0  0  0
   21.6383   18.0277   26.0014 H   0  0  0  0  0  0  0  0  0  0  0  0
   21.5051   19.6802   25.3977 H   0  0  0  0  0  0  0  0  0  0  0  0
   20.6567   18.1565   24.0912 C   0  0  0  0  0  0  0  0  0  0  0  0
   21.5189   17.5572   23.7700 H   0  0  0  0  0  0  0  0  0  0  0  0
   19.8062   17.4648   24.1527 H   0  0  0  0  0  0  0  0  0  0  0  0
   20.3969   19.2476   23.0244 C   0  0  0  0  0  0  0  0  0  0  0  0
   21.2574   19.9297   22.9846 H   0  0  0  0  0  0  0  0  0  0  0  0
   19.5274   19.8546   23.3022 H   0  0  0  0  0  0  0  0  0  0  0  0
   20.1597   18.6360   21.6247 C   0  0  0  0  0  0  0  0  0  0  0  0
   21.0322   18.0351   21.3327 H   0  0  0  0  0  0  0  0  0  0  0  0
   19.3013   17.9511   21.6639 H   0  0  0  0  0  0  0  0  0  0  0  0
   19.9029   19.7225   20.5565 C   0  0  0  0  0  0  0  0  0  0  0  0
   20.7598   20.4093   20.5121 H   0  0  0  0  0  0  0  0  0  0  0  0
   19.0289   20.3247   20.8420 H   0  0  0  0  0  0  0  0  0  0  0  0
   19.6667   19.1079   19.1603 C   0  0  0  0  0  0  0  0  0  0  0  0
   20.5385   18.5272   18.8318 H   0  0  0  0  0  0  0  0  0  0  0  0
   19.4863   19.8943   18.4160 H   0  0  0  0  0  0  0  0  0  0  0  0
   18.7941   18.4417   19.1645 H   0  0  0  0  0  0  0  0  0  0  0  0
   18.8704   20.0602   25.9538 C   0  0  0  0  0  0  0  0  0  0  0  0
   18.0991   20.2269   26.7090 H   0  0  0  0  0  0  0  0  0  0  0  0
   19.4620   20.9689   25.8236 H   0  0  0  0  0  0  0  0  0  0  0  0
   18.3994   19.7805   25.0101 H   0  0  0  0  0  0  0  0  0  0  0  0
  1  2  1  0  0  0  0
  1  3  1  0  0  0  0
  1  4  1  0  0  0  0
  4  5  1  0  0  0  0
  4  6  1  0  0  0  0
  4  7  1  0  0  0  0
  7  8  1  0  0  0  0
  7  9  1  0  0  0  0
  7 10  1  0  0  0  0
 10 11  1  0  0  0  0
 10 12  1  0  0  0  0
 10 13  1  0  0  0  0
 13 14  1  0  0  0  0
 13 15  1  0  0  0  0
 13 16  1  0  0  0  0
 16 17  1  0  0  0  0
 16 18  1  0  0  0  0
 16 19  1  0  0  0  0
 19 20  1  0  0  0  0
 19 21  1  0  0  0  0
 19 22  1  0  0  0  0
  1 23  1  0  0  0  0
 23 24  1  0  0  0  0
 23 25  1  0  0  0  0
 23 26  1  0  0  0  0
M  END
> <VM2 Rank>
83

> <Conf_Id>
516

> <Probability>
0.25

> <Sum Probability>
95.18

> <Delta G>
1.977

> <G>
77.443

> <E>
45.217

> <-TS>
32.226

> <U+W>
23.755

> <U>
72.994

> <W>
-49.239

> <W(PB)>
-51.516

> <W(SA)>
2.277

> <Valence>
3.858

> <Coulomb>
68.737

> <VdW>
0.399

> <VdW6>
-6.843

> <VdW12>
7.242

> <Bond>
0.196

> <Angle>
0.971

> <Pdih>
2.692

> <Idih>
0.000

> <Tether>
0.000

$$$$
VeraChem MOL file


 26 25  0  0  0  0  0  0  0  0999 V2000     
   20.1779   18.5100   26.0021 N   0  3  0  0  0  0  0  0  0  0  0  0
   21.1129   18.2715   25.6394 H   0  0  0  0  0  0  0  0  0  0  0  0
   19.9882   17.8086   26.7355 H   0  0  0  0  0  0  0  0  0  0  0  0
   19.1402   18.3841   24.8973 C   0  0  0  0  0  0  0  0  0  0  0  0
   18.1708   18.6541   25.3237 H   0  0  0  0  0  0  0  0  0  0  0  0
   19.0978   17.3311   24.6076 H   0  0  0  0  0  0  0  0  0  0  0  0
   19.4056   19.2399   23.6392 C   0  0  0  0  0  0  0  0  0  0  0  0
   18.5649   19.0926   22.9501 H   0  0  0  0  0  0  0  0  0  0  0  0
   19.4056   20.3046   23.9055 H   0  0  0  0  0  0  0  0  0  0  0  0
   20.7331   18.8699   22.9312 C   0  0  0  0  0  0  0  0  0  0  0  0
   20.7207   17.8085   22.6497 H   0  0  0  0  0  0  0  0  0  0  0  0
   21.5660   18.9861   23.6371 H   0  0  0  0  0  0  0  0  0  0  0  0
   21.0369   19.7443   21.6868 C   0  0  0  0  0  0  0  0  0  0  0  0
   21.1512   20.7899   22.0045 H   0  0  0  0  0  0  0  0  0  0  0  0
   22.0126   19.4471   21.2783 H   0  0  0  0  0  0  0  0  0  0  0  0
   19.9807   19.6793   20.5538 C   0  0  0  0  0  0  0  0  0  0  0  0
   20.3094   20.3315   19.7326 H   0  0  0  0  0  0  0  0  0  0  0  0
   19.0248   20.0943   20.9003 H   0  0  0  0  0  0  0  0  0  0  0  0
   19.7605   18.2538   19.9984 C   0  0  0  0  0  0  0  0  0  0  0  0
   20.7069   17.8103   19.6632 H   0  0  0  0  0  0  0  0  0  0  0  0
   19.0777   18.2771   19.1393 H   0  0  0  0  0  0  0  0  0  0  0  0
   19.3183   17.5918   20.7533 H   0  0  0  0  0  0  0  0  0  0  0  0
   20.1730   19.9086   26.6082 C   0  0  0  0  0  0  0  0  0  0  0  0
   19.1766   20.1268   26.9986 H   0  0  0  0  0  0  0  0  0  0  0  0
   20.9039   19.9493   27.4189 H   0  0  0  0  0  0  0  0  0  0  0  0
   20.4376   20.6365   25.8386 H   0  0  0  0  0  0  0  0  0  0  0  0
  1  2  1  0  0  0  0
  1  3  1  0  0  0  0
  1  4  1  0  0  0  0
  4  5  1  0  0  0  0
  4  6  1  0  0  0  0
  4  7  1  0  0  0  0
  7  8  1  0  0  0  0
  7  9  1  0  0  0  0
  7 10  1  0  0  0  0
 10 11  1  0  0  0  0
 10 12  1  0  0  0  0
 10 13  1  0  0  0  0
 13 14  1  0  0  0  0
 13 15  1  0  0  0  0
 13 16  1  0  0  0  0
 16 17  1  0  0  0  0
 16 18  1  0  0  0  0
 16 19  1  0  0  0  0
 19 20  1  0  0  0  0
 19 21  1  0  0  0  0
 19 22  1  0  0  0  0
  1 23  1  0  0  0  0
 23 24  1  0  0  0  0
 23 25  1  0  0  0  0
 23 26  1  0  0  0  0
M  END
> <VM2 Rank>
84

> <Conf_Id>
189

> <Probability>
0.25

> <Sum Probability>
95.42

> <Delta G>
1.982

> <G>
77.448

> <E>
44.560

> <-TS>
32.888

> <U+W>
23.098

> <U>
72.739

> <W>
-49.641

> <W(PB)>
-51.847

> <W(SA)>
2.206

> <Valence>
3.076

> <Coulomb>
69.128

> <VdW>
0.535

> <VdW6>
-8.276

> <VdW12>
8.811

> <Bond>
0.270

> <Angle>
1.277

> <Pdih>
1.529

> <Idih>
0.000

> <Tether>
0.000

$$$$
VeraChem MOL file


 26 25  0  0  0  0  0  0  0  0999 V2000     
   19.8511   18.4765   25.9905 N   0  3  0  0  0  0  0  0  0  0  0  0
   20.1270   17.8228   26.7404 H   0  0  0  0  0  0  0  0  0  0  0  0
   19.0114   18.0565   25.5650 H   0  0  0  0  0  0  0  0  0  0  0  0
   20.9676   18.5711   24.9620 C   0  0  0  0  0  0  0  0  0  0  0  0
   21.2423   17.5505   24.6835 H   0  0  0  0  0  0  0  0  0  0  0  0
   21.8301   19.0285   25.4533 H   0  0  0  0  0  0  0  0  0  0  0  0
   20.6233   19.3645   23.6823 C   0  0  0  0  0  0  0  0  0  0  0  0
   20.3893   20.4053   23.9403 H   0  0  0  0  0  0  0  0  0  0  0  0
   21.5226   19.3952   23.0549 H   0  0  0  0  0  0  0  0  0  0  0  0
   19.4510   18.7387   22.8858 C   0  0  0  0  0  0  0  0  0  0  0  0
   18.5645   18.6789   23.5307 H   0  0  0  0  0  0  0  0  0  0  0  0
   19.6976   17.7038   22.6135 H   0  0  0  0  0  0  0  0  0  0  0  0
   19.0645   19.5425   21.6170 C   0  0  0  0  0  0  0  0  0  0  0  0
   18.2002   19.0569   21.1432 H   0  0  0  0  0  0  0  0  0  0  0  0
   18.7191   20.5410   21.9183 H   0  0  0  0  0  0  0  0  0  0  0  0
   20.1887   19.7006   20.5612 C   0  0  0  0  0  0  0  0  0  0  0  0
   21.0142   20.2979   20.9708 H   0  0  0  0  0  0  0  0  0  0  0  0
   19.7932   20.2787   19.7143 H   0  0  0  0  0  0  0  0  0  0  0  0
   20.7311   18.3532   20.0328 C   0  0  0  0  0  0  0  0  0  0  0  0
   19.9199   17.7297   19.6352 H   0  0  0  0  0  0  0  0  0  0  0  0
   21.2441   17.7889   20.8215 H   0  0  0  0  0  0  0  0  0  0  0  0
   21.4536   18.5203   19.2235 H   0  0  0  0  0  0  0  0  0  0  0  0
   19.5306   19.8429   26.5855 C   0  0  0  0  0  0  0  0  0  0  0  0
   20.4324   20.2553   27.0431 H   0  0  0  0  0  0  0  0  0  0  0  0
   19.1788   20.5077   25.7940 H   0  0  0  0  0  0  0  0  0  0  0  0
   18.7517   19.7291   27.3427 H   0  0  0  0  0  0  0  0  0  0  0  0
  1  2  1  0  0  0  0
  1  3  1  0  0  0  0
  1  4  1  0  0  0  0
  4  5  1  0  0  0  0
  4  6  1  0  0  0  0
  4  7  1  0  0  0  0
  7  8  1  0  0  0  0
  7  9  1  0  0  0  0
  7 10  1  0  0  0  0
 10 11  1  0  0  0  0
 10 12  1  0  0  0  0
 10 13  1  0  0  0  0
 13 14  1  0  0  0  0
 13 15  1  0  0  0  0
 13 16  1  0  0  0  0
 16 17  1  0  0  0  0
 16 18  1  0  0  0  0
 16 19  1  0  0  0  0
 19 20  1  0  0  0  0
 19 21  1  0  0  0  0
 19 22  1  0  0  0  0
  1 23  1  0  0  0  0
 23 24  1  0  0  0  0
 23 25  1  0  0  0  0
 23 26  1  0  0  0  0
M  END
> <VM2 Rank>
85

> <Conf_Id>
1080

> <Probability>
0.24

> <Sum Probability>
95.66

> <Delta G>
1.998

> <G>
77.464

> <E>
44.576

> <-TS>
32.888

> <U+W>
23.114

> <U>
72.739

> <W>
-49.625

> <W(PB)>
-51.868

> <W(SA)>
2.243

> <Valence>
3.076

> <Coulomb>
69.128

> <VdW>
0.535

> <VdW6>
-8.276

> <VdW12>
8.811

> <Bond>
0.270

> <Angle>
1.277

> <Pdih>
1.529

> <Idih>
0.000

> <Tether>
0.000

$$$$
VeraChem MOL file


 26 25  0  0  0  0  0  0  0  0999 V2000     
   20.0435   18.2295   25.4992 N   0  3  0  0  0  0  0  0  0  0  0  0
   20.5292   17.3704   25.8022 H   0  0  0  0  0  0  0  0  0  0  0  0
   19.2211   17.9031   24.9704 H   0  0  0  0  0  0  0  0  0  0  0  0
   20.9564   19.0392   24.5922 C   0  0  0  0  0  0  0  0  0  0  0  0
   21.3491   18.3592   23.8322 H   0  0  0  0  0  0  0  0  0  0  0  0
   21.7977   19.3899   25.1953 H   0  0  0  0  0  0  0  0  0  0  0  0
   20.2838   20.2413   23.8920 C   0  0  0  0  0  0  0  0  0  0  0  0
   19.9623   20.9701   24.6471 H   0  0  0  0  0  0  0  0  0  0  0  0
   21.0353   20.7601   23.2836 H   0  0  0  0  0  0  0  0  0  0  0  0
   19.0699   19.8562   23.0062 C   0  0  0  0  0  0  0  0  0  0  0  0
   18.6848   20.7630   22.5197 H   0  0  0  0  0  0  0  0  0  0  0  0
   18.2546   19.4957   23.6479 H   0  0  0  0  0  0  0  0  0  0  0  0
   19.3652   18.7871   21.9222 C   0  0  0  0  0  0  0  0  0  0  0  0
   19.6636   17.8421   22.3951 H   0  0  0  0  0  0  0  0  0  0  0  0
   18.4318   18.5738   21.3832 H   0  0  0  0  0  0  0  0  0  0  0  0
   20.4447   19.2223   20.9031 C   0  0  0  0  0  0  0  0  0  0  0  0
   21.4064   19.3738   21.4110 H   0  0  0  0  0  0  0  0  0  0  0  0
   20.1653   20.1864   20.4557 H   0  0  0  0  0  0  0  0  0  0  0  0
   20.6286   18.1735   19.7855 C   0  0  0  0  0  0  0  0  0  0  0  0
   19.6956   18.0236   19.2267 H   0  0  0  0  0  0  0  0  0  0  0  0
   20.9382   17.2053   20.1999 H   0  0  0  0  0  0  0  0  0  0  0  0
   21.3989   18.4968   19.0734 H   0  0  0  0  0  0  0  0  0  0  0  0
   19.6160   19.0408   26.7167 C   0  0  0  0  0  0  0  0  0  0  0  0
   19.0510   19.9152   26.3874 H   0  0  0  0  0  0  0  0  0  0  0  0
   18.9886   18.4185   27.3586 H   0  0  0  0  0  0  0  0  0  0  0  0
   20.5048   19.3587   27.2659 H   0  0  0  0  0  0  0  0  0  0  0  0
  1  2  1  0  0  0  0
  1  3  1  0  0  0  0
  1  4  1  0  0  0  0
  4  5  1  0  0  0  0
  4  6  1  0  0  0  0
  4  7  1  0  0  0  0
  7  8  1  0  0  0  0
  7  9  1  0  0  0  0
  7 10  1  0  0  0  0
 10 11  1  0  0  0  0
 10 12  1  0  0  0  0
 10 13  1  0  0  0  0
 13 14  1  0  0  0  0
 13 15  1  0  0  0  0
 13 16  1  0  0  0  0
 16 17  1  0  0  0  0
 16 18  1  0  0  0  0
 16 19  1  0  0  0  0
 19 20  1  0  0  0  0
 19 21  1  0  0  0  0
 19 22  1  0  0  0  0
  1 23  1  0  0  0  0
 23 24  1  0  0  0  0
 23 25  1  0  0  0  0
 23 26  1  0  0  0  0
M  END
> <VM2 Rank>
86

> <Conf_Id>
1332

> <Probability>
0.23

> <Sum Probability>
95.90

> <Delta G>
2.011

> <G>
77.477

> <E>
44.551

> <-TS>
32.926

> <U+W>
23.090

> <U>
72.940

> <W>
-49.850

> <W(PB)>
-52.094

> <W(SA)>
2.244

> <Valence>
2.864

> <Coulomb>
69.814

> <VdW>
0.261

> <VdW6>
-8.512

> <VdW12>
8.773

> <Bond>
0.254

> <Angle>
1.081

> <Pdih>
1.529

> <Idih>
0.000

> <Tether>
0.000

$$$$
VeraChem MOL file


 26 25  0  0  0  0  0  0  0  0999 V2000     
   19.2136   19.4982   25.5381 N   0  3  0  0  0  0  0  0  0  0  0  0
   18.3074   19.3952   26.0216 H   0  0  0  0  0  0  0  0  0  0  0  0
   19.0260   20.1286   24.7444 H   0  0  0  0  0  0  0  0  0  0  0  0
   19.6762   18.1430   25.0267 C   0  0  0  0  0  0  0  0  0  0  0  0
   18.8408   17.6973   24.4815 H   0  0  0  0  0  0  0  0  0  0  0  0
   19.8817   17.5130   25.8958 H   0  0  0  0  0  0  0  0  0  0  0  0
   20.9186   18.1774   24.1079 C   0  0  0  0  0  0  0  0  0  0  0  0
   21.7868   18.5232   24.6836 H   0  0  0  0  0  0  0  0  0  0  0  0
   21.1530   17.1507   23.7971 H   0  0  0  0  0  0  0  0  0  0  0  0
   20.7534   19.0664   22.8494 C   0  0  0  0  0  0  0  0  0  0  0  0
   21.6992   19.0467   22.2928 H   0  0  0  0  0  0  0  0  0  0  0  0
   20.5974   20.1113   23.1491 H   0  0  0  0  0  0  0  0  0  0  0  0
   19.5979   18.6063   21.9243 C   0  0  0  0  0  0  0  0  0  0  0  0
   19.7737   17.5714   21.5998 H   0  0  0  0  0  0  0  0  0  0  0  0
   18.6558   18.5968   22.4877 H   0  0  0  0  0  0  0  0  0  0  0  0
   19.4057   19.5106   20.6825 C   0  0  0  0  0  0  0  0  0  0  0  0
   19.2166   20.5452   21.0011 H   0  0  0  0  0  0  0  0  0  0  0  0
   18.5031   19.1850   20.1467 H   0  0  0  0  0  0  0  0  0  0  0  0
   20.6021   19.4780   19.7041 C   0  0  0  0  0  0  0  0  0  0  0  0
   20.8327   18.4500   19.3959 H   0  0  0  0  0  0  0  0  0  0  0  0
   21.5034   19.9133   20.1530 H   0  0  0  0  0  0  0  0  0  0  0  0
   20.3737   20.0559   18.7992 H   0  0  0  0  0  0  0  0  0  0  0  0
   20.2404   20.1101   26.4840 C   0  0  0  0  0  0  0  0  0  0  0  0
   21.1767   20.2700   25.9455 H   0  0  0  0  0  0  0  0  0  0  0  0
   19.8612   21.0654   26.8536 H   0  0  0  0  0  0  0  0  0  0  0  0
   20.4060   19.4298   27.3221 H   0  0  0  0  0  0  0  0  0  0  0  0
  1  2  1  0  0  0  0
  1  3  1  0  0  0  0
  1  4  1  0  0  0  0
  4  5  1  0  0  0  0
  4  6  1  0  0  0  0
  4  7  1  0  0  0  0
  7  8  1  0  0  0  0
  7  9  1  0  0  0  0
  7 10  1  0  0  0  0
 10 11  1  0  0  0  0
 10 12  1  0  0  0  0
 10 13  1  0  0  0  0
 13 14  1  0  0  0  0
 13 15  1  0  0  0  0
 13 16  1  0  0  0  0
 16 17  1  0  0  0  0
 16 18  1  0  0  0  0
 16 19  1  0  0  0  0
 19 20  1  0  0  0  0
 19 21  1  0  0  0  0
 19 22  1  0  0  0  0
  1 23  1  0  0  0  0
 23 24  1  0  0  0  0
 23 25  1  0  0  0  0
 23 26  1  0  0  0  0
M  END
> <VM2 Rank>
87

> <Conf_Id>
1729

> <Probability>
0.21

> <Sum Probability>
96.11

> <Delta G>
2.069

> <G>
77.535

> <E>
44.759

> <-TS>
32.776

> <U+W>
23.297

> <U>
73.042

> <W>
-49.744

> <W(PB)>
-52.024

> <W(SA)>
2.279

> <Valence>
2.938

> <Coulomb>
69.625

> <VdW>
0.478

> <VdW6>
-8.182

> <VdW12>
8.660

> <Bond>
0.253

> <Angle>
1.038

> <Pdih>
1.647

> <Idih>
0.000

> <Tether>
0.000

$$$$
VeraChem MOL file


 26 25  0  0  0  0  0  0  0  0999 V2000     
   20.6243   19.6445   25.5879 N   0  3  0  0  0  0  0  0  0  0  0  0
   20.7337   20.3057   24.8046 H   0  0  0  0  0  0  0  0  0  0  0  0
   21.4964   19.7259   26.1343 H   0  0  0  0  0  0  0  0  0  0  0  0
   20.4861   18.2270   25.0554 C   0  0  0  0  0  0  0  0  0  0  0  0
   20.3537   17.5620   25.9126 H   0  0  0  0  0  0  0  0  0  0  0  0
   21.4311   17.9658   24.5733 H   0  0  0  0  0  0  0  0  0  0  0  0
   19.3303   18.0127   24.0517 C   0  0  0  0  0  0  0  0  0  0  0  0
   19.3336   16.9620   23.7328 H   0  0  0  0  0  0  0  0  0  0  0  0
   18.3716   18.1691   24.5628 H   0  0  0  0  0  0  0  0  0  0  0  0
   19.3976   18.9258   22.8014 C   0  0  0  0  0  0  0  0  0  0  0  0
   19.3149   19.9783   23.1036 H   0  0  0  0  0  0  0  0  0  0  0  0
   18.5171   18.7167   22.1802 H   0  0  0  0  0  0  0  0  0  0  0  0
   20.6845   18.7186   21.9627 C   0  0  0  0  0  0  0  0  0  0  0  0
   21.5669   18.8980   22.5907 H   0  0  0  0  0  0  0  0  0  0  0  0
   20.7474   17.6721   21.6340 H   0  0  0  0  0  0  0  0  0  0  0  0
   20.7739   19.6523   20.7310 C   0  0  0  0  0  0  0  0  0  0  0  0
   21.7593   19.5221   20.2619 H   0  0  0  0  0  0  0  0  0  0  0  0
   20.7247   20.7013   21.0546 H   0  0  0  0  0  0  0  0  0  0  0  0
   19.6808   19.3829   19.6716 C   0  0  0  0  0  0  0  0  0  0  0  0
   19.8488   20.0020   18.7809 H   0  0  0  0  0  0  0  0  0  0  0  0
   18.6804   19.6213   20.0534 H   0  0  0  0  0  0  0  0  0  0  0  0
   19.6875   18.3318   19.3553 H   0  0  0  0  0  0  0  0  0  0  0  0
   19.4305   20.0263   26.4553 C   0  0  0  0  0  0  0  0  0  0  0  0
   19.3497   19.3205   27.2848 H   0  0  0  0  0  0  0  0  0  0  0  0
   19.5791   21.0363   26.8434 H   0  0  0  0  0  0  0  0  0  0  0  0
   18.5212   19.9948   25.8516 H   0  0  0  0  0  0  0  0  0  0  0  0
  1  2  1  0  0  0  0
  1  3  1  0  0  0  0
  1  4  1  0  0  0  0
  4  5  1  0  0  0  0
  4  6  1  0  0  0  0
  4  7  1  0  0  0  0
  7  8  1  0  0  0  0
  7  9  1  0  0  0  0
  7 10  1  0  0  0  0
 10 11  1  0  0  0  0
 10 12  1  0  0  0  0
 10 13  1  0  0  0  0
 13 14  1  0  0  0  0
 13 15  1  0  0  0  0
 13 16  1  0  0  0  0
 16 17  1  0  0  0  0
 16 18  1  0  0  0  0
 16 19  1  0  0  0  0
 19 20  1  0  0  0  0
 19 21  1  0  0  0  0
 19 22  1  0  0  0  0
  1 23  1  0  0  0  0
 23 24  1  0  0  0  0
 23 25  1  0  0  0  0
 23 26  1  0  0  0  0
M  END
> <VM2 Rank>
88

> <Conf_Id>
687

> <Probability>
0.21

> <Sum Probability>
96.32

> <Delta G>
2.070

> <G>
77.536

> <E>
44.760

> <-TS>
32.776

> <U+W>
23.298

> <U>
73.042

> <W>
-49.744

> <W(PB)>
-51.966

> <W(SA)>
2.222

> <Valence>
2.938

> <Coulomb>
69.625

> <VdW>
0.478

> <VdW6>
-8.182

> <VdW12>
8.660

> <Bond>
0.253

> <Angle>
1.038

> <Pdih>
1.647

> <Idih>
0.000

> <Tether>
0.000

$$$$
VeraChem MOL file


 26 25  0  0  0  0  0  0  0  0999 V2000     
   20.4140   19.0045   26.2207 N   0  3  0  0  0  0  0  0  0  0  0  0
   21.3218   18.6326   25.9027 H   0  0  0  0  0  0  0  0  0  0  0  0
   20.3608   18.7567   27.2214 H   0  0  0  0  0  0  0  0  0  0  0  0
   19.2749   18.3281   25.4747 C   0  0  0  0  0  0  0  0  0  0  0  0
   18.4083   18.9935   25.4970 H   0  0  0  0  0  0  0  0  0  0  0  0
   19.0181   17.4293   26.0413 H   0  0  0  0  0  0  0  0  0  0  0  0
   19.5898   17.9032   24.0229 C   0  0  0  0  0  0  0  0  0  0  0  0
   20.4339   17.2010   24.0239 H   0  0  0  0  0  0  0  0  0  0  0  0
   18.7251   17.3456   23.6391 H   0  0  0  0  0  0  0  0  0  0  0  0
   19.8930   19.0848   23.0720 C   0  0  0  0  0  0  0  0  0  0  0  0
   20.8218   19.5803   23.3830 H   0  0  0  0  0  0  0  0  0  0  0  0
   19.0885   19.8299   23.1433 H   0  0  0  0  0  0  0  0  0  0  0  0
   20.0387   18.6199   21.6050 C   0  0  0  0  0  0  0  0  0  0  0  0
   20.8391   17.8703   21.5349 H   0  0  0  0  0  0  0  0  0  0  0  0
   19.1119   18.1260   21.2814 H   0  0  0  0  0  0  0  0  0  0  0  0
   20.3518   19.7980   20.6556 C   0  0  0  0  0  0  0  0  0  0  0  0
   21.2799   20.2940   20.9728 H   0  0  0  0  0  0  0  0  0  0  0  0
   19.5527   20.5499   20.7211 H   0  0  0  0  0  0  0  0  0  0  0  0
   20.4960   19.3306   19.1916 C   0  0  0  0  0  0  0  0  0  0  0  0
   21.3112   18.6026   19.0879 H   0  0  0  0  0  0  0  0  0  0  0  0
   20.7180   20.1805   18.5332 H   0  0  0  0  0  0  0  0  0  0  0  0
   19.5705   18.8606   18.8341 H   0  0  0  0  0  0  0  0  0  0  0  0
   20.3499   20.5210   26.0745 C   0  0  0  0  0  0  0  0  0  0  0  0
   19.3958   20.8776   26.4685 H   0  0  0  0  0  0  0  0  0  0  0  0
   21.1706   20.9686   26.6397 H   0  0  0  0  0  0  0  0  0  0  0  0
   20.4380   20.7940   25.0222 H   0  0  0  0  0  0  0  0  0  0  0  0
  1  2  1  0  0  0  0
  1  3  1  0  0  0  0
  1  4  1  0  0  0  0
  4  5  1  0  0  0  0
  4  6  1  0  0  0  0
  4  7  1  0  0  0  0
  7  8  1  0  0  0  0
  7  9  1  0  0  0  0
  7 10  1  0  0  0  0
 10 11  1  0  0  0  0
 10 12  1  0  0  0  0
 10 13  1  0  0  0  0
 13 14  1  0  0  0  0
 13 15  1  0  0  0  0
 13 16  1  0  0  0  0
 16 17  1  0  0  0  0
 16 18  1  0  0  0  0
 16 19  1  0  0  0  0
 19 20  1  0  0  0  0
 19 21  1  0  0  0  0
 19 22  1  0  0  0  0
  1 23  1  0  0  0  0
 23 24  1  0  0  0  0
 23 25  1  0  0  0  0
 23 26  1  0  0  0  0
M  END
> <VM2 Rank>
89

> <Conf_Id>
518

> <Probability>
0.20

> <Sum Probability>
96.52

> <Delta G>
2.105

> <G>
77.571

> <E>
45.061

> <-TS>
32.510

> <U+W>
23.599

> <U>
72.879

> <W>
-49.280

> <W(PB)>
-51.580

> <W(SA)>
2.300

> <Valence>
3.733

> <Coulomb>
68.869

> <VdW>
0.276

> <VdW6>
-6.946

> <VdW12>
7.222

> <Bond>
0.187

> <Angle>
0.835

> <Pdih>
2.712

> <Idih>
0.000

> <Tether>
0.000

$$$$
VeraChem MOL file


 26 25  0  0  0  0  0  0  0  0999 V2000     
   19.5055   18.9110   26.1886 N   0  3  0  0  0  0  0  0  0  0  0  0
   19.5379   18.6720   27.1923 H   0  0  0  0  0  0  0  0  0  0  0  0
   18.7168   18.3646   25.8105 H   0  0  0  0  0  0  0  0  0  0  0  0
   20.8077   18.4857   25.5290 C   0  0  0  0  0  0  0  0  0  0  0  0
   21.2016   17.6539   26.1185 H   0  0  0  0  0  0  0  0  0  0  0  0
   21.5172   19.3133   25.6070 H   0  0  0  0  0  0  0  0  0  0  0  0
   20.6881   18.0162   24.0618 C   0  0  0  0  0  0  0  0  0  0  0  0
   21.6727   17.6488   23.7434 H   0  0  0  0  0  0  0  0  0  0  0  0
   20.0063   17.1571   24.0088 H   0  0  0  0  0  0  0  0  0  0  0  0
   20.2184   19.1183   23.0835 C   0  0  0  0  0  0  0  0  0  0  0  0
   20.8476   20.0109   23.2056 H   0  0  0  0  0  0  0  0  0  0  0  0
   19.1888   19.4125   23.3251 H   0  0  0  0  0  0  0  0  0  0  0  0
   20.2732   18.6441   21.6133 C   0  0  0  0  0  0  0  0  0  0  0  0
   21.3013   18.3511   21.3589 H   0  0  0  0  0  0  0  0  0  0  0  0
   19.6487   17.7480   21.4928 H   0  0  0  0  0  0  0  0  0  0  0  0
   19.7944   19.7407   20.6359 C   0  0  0  0  0  0  0  0  0  0  0  0
   20.4176   20.6387   20.7515 H   0  0  0  0  0  0  0  0  0  0  0  0
   18.7651   20.0356   20.8838 H   0  0  0  0  0  0  0  0  0  0  0  0
   19.8508   19.2641   19.1687 C   0  0  0  0  0  0  0  0  0  0  0  0
   19.2097   18.3865   19.0137 H   0  0  0  0  0  0  0  0  0  0  0  0
   20.8751   18.9944   18.8802 H   0  0  0  0  0  0  0  0  0  0  0  0
   19.5074   20.0558   18.4903 H   0  0  0  0  0  0  0  0  0  0  0  0
   19.2699   20.4099   26.0364 C   0  0  0  0  0  0  0  0  0  0  0  0
   20.1017   20.9502   26.4935 H   0  0  0  0  0  0  0  0  0  0  0  0
   19.2020   20.6668   24.9786 H   0  0  0  0  0  0  0  0  0  0  0  0
   18.3380   20.6771   26.5395 H   0  0  0  0  0  0  0  0  0  0  0  0
  1  2  1  0  0  0  0
  1  3  1  0  0  0  0
  1  4  1  0  0  0  0
  4  5  1  0  0  0  0
  4  6  1  0  0  0  0
  4  7  1  0  0  0  0
  7  8  1  0  0  0  0
  7  9  1  0  0  0  0
  7 10  1  0  0  0  0
 10 11  1  0  0  0  0
 10 12  1  0  0  0  0
 10 13  1  0  0  0  0
 13 14  1  0  0  0  0
 13 15  1  0  0  0  0
 13 16  1  0  0  0  0
 16 17  1  0  0  0  0
 16 18  1  0  0  0  0
 16 19  1  0  0  0  0
 19 20  1  0  0  0  0
 19 21  1  0  0  0  0
 19 22  1  0  0  0  0
  1 23  1  0  0  0  0
 23 24  1  0  0  0  0
 23 25  1  0  0  0  0
 23 26  1  0  0  0  0
M  END
> <VM2 Rank>
90

> <Conf_Id>
1334

> <Probability>
0.20

> <Sum Probability>
96.72

> <Delta G>
2.106

> <G>
77.572

> <E>
45.062

> <-TS>
32.510

> <U+W>
23.600

> <U>
72.879

> <W>
-49.278

> <W(PB)>
-51.547

> <W(SA)>
2.268

> <Valence>
3.733

> <Coulomb>
68.869

> <VdW>
0.277

> <VdW6>
-6.946

> <VdW12>
7.222

> <Bond>
0.187

> <Angle>
0.835

> <Pdih>
2.712

> <Idih>
0.000

> <Tether>
0.000

$$$$
VeraChem MOL file


 26 25  0  0  0  0  0  0  0  0999 V2000     
   20.6768   18.4453   25.3396 N   0  3  0  0  0  0  0  0  0  0  0  0
   21.2647   18.4895   24.4940 H   0  0  0  0  0  0  0  0  0  0  0  0
   20.8943   17.5342   25.7735 H   0  0  0  0  0  0  0  0  0  0  0  0
   19.2071   18.4882   24.9523 C   0  0  0  0  0  0  0  0  0  0  0  0
   18.6198   18.4590   25.8736 H   0  0  0  0  0  0  0  0  0  0  0  0
   18.9914   17.5770   24.3892 H   0  0  0  0  0  0  0  0  0  0  0  0
   18.7865   19.7134   24.1091 C   0  0  0  0  0  0  0  0  0  0  0  0
   17.7145   19.6330   23.8852 H   0  0  0  0  0  0  0  0  0  0  0  0
   18.9017   20.6259   24.7081 H   0  0  0  0  0  0  0  0  0  0  0  0
   19.5753   19.8669   22.7846 C   0  0  0  0  0  0  0  0  0  0  0  0
   20.6341   20.0473   23.0097 H   0  0  0  0  0  0  0  0  0  0  0  0
   19.2157   20.7658   22.2651 H   0  0  0  0  0  0  0  0  0  0  0  0
   19.4277   18.6437   21.8446 C   0  0  0  0  0  0  0  0  0  0  0  0
   19.8557   17.7487   22.3153 H   0  0  0  0  0  0  0  0  0  0  0  0
   18.3595   18.4337   21.6955 H   0  0  0  0  0  0  0  0  0  0  0  0
   20.0858   18.8516   20.4592 C   0  0  0  0  0  0  0  0  0  0  0  0
   19.6471   19.7308   19.9669 H   0  0  0  0  0  0  0  0  0  0  0  0
   19.8440   17.9902   19.8209 H   0  0  0  0  0  0  0  0  0  0  0  0
   21.6224   19.0057   20.5267 C   0  0  0  0  0  0  0  0  0  0  0  0
   21.9135   19.9216   21.0557 H   0  0  0  0  0  0  0  0  0  0  0  0
   22.0473   19.0604   19.5161 H   0  0  0  0  0  0  0  0  0  0  0  0
   22.0834   18.1507   21.0379 H   0  0  0  0  0  0  0  0  0  0  0  0
   21.0265   19.5752   26.3010 C   0  0  0  0  0  0  0  0  0  0  0  0
   20.4016   19.4933   27.1929 H   0  0  0  0  0  0  0  0  0  0  0  0
   22.0795   19.4943   26.5797 H   0  0  0  0  0  0  0  0  0  0  0  0
   20.8490   20.5343   25.8105 H   0  0  0  0  0  0  0  0  0  0  0  0
  1  2  1  0  0  0  0
  1  3  1  0  0  0  0
  1  4  1  0  0  0  0
  4  5  1  0  0  0  0
  4  6  1  0  0  0  0
  4  7  1  0  0  0  0
  7  8  1  0  0  0  0
  7  9  1  0  0  0  0
  7 10  1  0  0  0  0
 10 11  1  0  0  0  0
 10 12  1  0  0  0  0
 10 13  1  0  0  0  0
 13 14  1  0  0  0  0
 13 15  1  0  0  0  0
 13 16  1  0  0  0  0
 16 17  1  0  0  0  0
 16 18  1  0  0  0  0
 16 19  1  0  0  0  0
 19 20  1  0  0  0  0
 19 21  1  0  0  0  0
 19 22  1  0  0  0  0
  1 23  1  0  0  0  0
 23 24  1  0  0  0  0
 23 25  1  0  0  0  0
 23 26  1  0  0  0  0
M  END
> <VM2 Rank>
91

> <Conf_Id>
157

> <Probability>
0.19

> <Sum Probability>
96.91

> <Delta G>
2.141

> <G>
77.607

> <E>
44.799

> <-TS>
32.808

> <U+W>
23.337

> <U>
73.121

> <W>
-49.784

> <W(PB)>
-52.011

> <W(SA)>
2.227

> <Valence>
2.869

> <Coulomb>
69.886

> <VdW>
0.367

> <VdW6>
-8.311

> <VdW12>
8.678

> <Bond>
0.246

> <Angle>
0.961

> <Pdih>
1.661

> <Idih>
0.000

> <Tether>
0.000

$$$$
VeraChem MOL file


 26 25  0  0  0  0  0  0  0  0999 V2000     
   20.7252   18.6302   25.8436 N   0  3  0  0  0  0  0  0  0  0  0  0
   21.6037   18.9254   26.2984 H   0  0  0  0  0  0  0  0  0  0  0  0
   20.8928   17.6565   25.5470 H   0  0  0  0  0  0  0  0  0  0  0  0
   20.4588   19.5101   24.6337 C   0  0  0  0  0  0  0  0  0  0  0  0
   21.3833   19.5471   24.0525 H   0  0  0  0  0  0  0  0  0  0  0  0
   20.2422   20.5195   24.9919 H   0  0  0  0  0  0  0  0  0  0  0  0
   19.3128   19.0191   23.7238 C   0  0  0  0  0  0  0  0  0  0  0  0
   19.5117   17.9888   23.4029 H   0  0  0  0  0  0  0  0  0  0  0  0
   18.3779   18.9874   24.2978 H   0  0  0  0  0  0  0  0  0  0  0  0
   19.1017   19.9277   22.4870 C   0  0  0  0  0  0  0  0  0  0  0  0
   18.7866   20.9234   22.8283 H   0  0  0  0  0  0  0  0  0  0  0  0
   18.2621   19.5389   21.8955 H   0  0  0  0  0  0  0  0  0  0  0  0
   20.3478   20.0886   21.5746 C   0  0  0  0  0  0  0  0  0  0  0  0
   20.0792   20.7316   20.7252 H   0  0  0  0  0  0  0  0  0  0  0  0
   21.1312   20.6328   22.1189 H   0  0  0  0  0  0  0  0  0  0  0  0
   20.9423   18.7646   21.0304 C   0  0  0  0  0  0  0  0  0  0  0  0
   21.3166   18.1475   21.8582 H   0  0  0  0  0  0  0  0  0  0  0  0
   21.8196   19.0025   20.4128 H   0  0  0  0  0  0  0  0  0  0  0  0
   19.9429   17.9473   20.1807 C   0  0  0  0  0  0  0  0  0  0  0  0
   19.0979   17.5923   20.7836 H   0  0  0  0  0  0  0  0  0  0  0  0
   20.4350   17.0658   19.7499 H   0  0  0  0  0  0  0  0  0  0  0  0
   19.5457   18.5483   19.3524 H   0  0  0  0  0  0  0  0  0  0  0  0
   19.5765   18.7024   26.8433 C   0  0  0  0  0  0  0  0  0  0  0  0
   19.4344   19.7404   27.1521 H   0  0  0  0  0  0  0  0  0  0  0  0
   18.6647   18.3267   26.3749 H   0  0  0  0  0  0  0  0  0  0  0  0
   19.8214   18.0892   27.7134 H   0  0  0  0  0  0  0  0  0  0  0  0
  1  2  1  0  0  0  0
  1  3  1  0  0  0  0
  1  4  1  0  0  0  0
  4  5  1  0  0  0  0
  4  6  1  0  0  0  0
  4  7  1  0  0  0  0
  7  8  1  0  0  0  0
  7  9  1  0  0  0  0
  7 10  1  0  0  0  0
 10 11  1  0  0  0  0
 10 12  1  0  0  0  0
 10 13  1  0  0  0  0
 13 14  1  0  0  0  0
 13 15  1  0  0  0  0
 13 16  1  0  0  0  0
 16 17  1  0  0  0  0
 16 18  1  0  0  0  0
 16 19  1  0  0  0  0
 19 20  1  0  0  0  0
 19 21  1  0  0  0  0
 19 22  1  0  0  0  0
  1 23  1  0  0  0  0
 23 24  1  0  0  0  0
 23 25  1  0  0  0  0
 23 26  1  0  0  0  0
M  END
> <VM2 Rank>
92

> <Conf_Id>
496

> <Probability>
0.19

> <Sum Probability>
97.10

> <Delta G>
2.142

> <G>
77.608

> <E>
44.604

> <-TS>
33.005

> <U+W>
23.142

> <U>
72.963

> <W>
-49.821

> <W(PB)>
-52.039

> <W(SA)>
2.218

> <Valence>
3.204

> <Coulomb>
69.346

> <VdW>
0.413

> <VdW6>
-8.434

> <VdW12>
8.847

> <Bond>
0.271

> <Angle>
1.305

> <Pdih>
1.627

> <Idih>
0.000

> <Tether>
0.000

$$$$
VeraChem MOL file


 26 25  0  0  0  0  0  0  0  0999 V2000     
   19.3005   18.4875   25.7927 N   0  3  0  0  0  0  0  0  0  0  0  0
   19.3501   17.5020   25.4917 H   0  0  0  0  0  0  0  0  0  0  0  0
   18.3512   18.5996   26.1828 H   0  0  0  0  0  0  0  0  0  0  0  0
   19.4717   19.4114   24.5986 C   0  0  0  0  0  0  0  0  0  0  0  0
   19.4582   20.4411   24.9642 H   0  0  0  0  0  0  0  0  0  0  0  0
   18.6013   19.2687   23.9536 H   0  0  0  0  0  0  0  0  0  0  0  0
   20.7532   19.1637   23.7749 C   0  0  0  0  0  0  0  0  0  0  0  0
   21.6331   19.3139   24.4133 H   0  0  0  0  0  0  0  0  0  0  0  0
   20.7855   18.1167   23.4482 H   0  0  0  0  0  0  0  0  0  0  0  0
   20.8662   20.1046   22.5495 C   0  0  0  0  0  0  0  0  0  0  0  0
   21.8057   19.8941   22.0212 H   0  0  0  0  0  0  0  0  0  0  0  0
   20.9530   21.1407   22.9050 H   0  0  0  0  0  0  0  0  0  0  0  0
   19.6801   20.0218   21.5509 C   0  0  0  0  0  0  0  0  0  0  0  0
   18.7682   20.3963   22.0349 H   0  0  0  0  0  0  0  0  0  0  0  0
   19.8750   20.7110   20.7177 H   0  0  0  0  0  0  0  0  0  0  0  0
   19.3993   18.6100   20.9759 C   0  0  0  0  0  0  0  0  0  0  0  0
   18.5379   18.6736   20.2965 H   0  0  0  0  0  0  0  0  0  0  0  0
   19.0974   17.9254   21.7798 H   0  0  0  0  0  0  0  0  0  0  0  0
   20.5979   18.0126   20.2044 C   0  0  0  0  0  0  0  0  0  0  0  0
   20.9254   18.6859   19.4017 H   0  0  0  0  0  0  0  0  0  0  0  0
   20.3216   17.0540   19.7466 H   0  0  0  0  0  0  0  0  0  0  0  0
   21.4520   17.8279   20.8677 H   0  0  0  0  0  0  0  0  0  0  0  0
   20.3391   18.7784   26.8702 C   0  0  0  0  0  0  0  0  0  0  0  0
   20.2508   19.8216   27.1812 H   0  0  0  0  0  0  0  0  0  0  0  0
   20.1601   18.1225   27.7250 H   0  0  0  0  0  0  0  0  0  0  0  0
   21.3378   18.5941   26.4695 H   0  0  0  0  0  0  0  0  0  0  0  0
  1  2  1  0  0  0  0
  1  3  1  0  0  0  0
  1  4  1  0  0  0  0
  4  5  1  0  0  0  0
  4  6  1  0  0  0  0
  4  7  1  0  0  0  0
  7  8  1  0  0  0  0
  7  9  1  0  0  0  0
  7 10  1  0  0  0  0
 10 11  1  0  0  0  0
 10 12  1  0  0  0  0
 10 13  1  0  0  0  0
 13 14  1  0  0  0  0
 13 15  1  0  0  0  0
 13 16  1  0  0  0  0
 16 17  1  0  0  0  0
 16 18  1  0  0  0  0
 16 19  1  0  0  0  0
 19 20  1  0  0  0  0
 19 21  1  0  0  0  0
 19 22  1  0  0  0  0
  1 23  1  0  0  0  0
 23 24  1  0  0  0  0
 23 25  1  0  0  0  0
 23 26  1  0  0  0  0
M  END
> <VM2 Rank>
93

> <Conf_Id>
1819

> <Probability>
0.18

> <Sum Probability>
97.28

> <Delta G>
2.160

> <G>
77.626

> <E>
44.621

> <-TS>
33.005

> <U+W>
23.159

> <U>
72.964

> <W>
-49.804

> <W(PB)>
-52.051

> <W(SA)>
2.247

> <Valence>
3.204

> <Coulomb>
69.346

> <VdW>
0.413

> <VdW6>
-8.435

> <VdW12>
8.848

> <Bond>
0.271

> <Angle>
1.306

> <Pdih>
1.627

> <Idih>
0.000

> <Tether>
0.000

$$$$
VeraChem MOL file


 26 25  0  0  0  0  0  0  0  0999 V2000     
   19.4222   18.3178   25.2951 N   0  3  0  0  0  0  0  0  0  0  0  0
   19.3624   17.3784   25.7192 H   0  0  0  0  0  0  0  0  0  0  0  0
   18.8981   18.2490   24.4101 H   0  0  0  0  0  0  0  0  0  0  0  0
   20.8768   18.6579   25.0114 C   0  0  0  0  0  0  0  0  0  0  0  0
   21.3100   17.8127   24.4712 H   0  0  0  0  0  0  0  0  0  0  0  0
   21.3920   18.7407   25.9717 H   0  0  0  0  0  0  0  0  0  0  0  0
   21.1005   19.9486   24.1911 C   0  0  0  0  0  0  0  0  0  0  0  0
   20.7625   20.8150   24.7741 H   0  0  0  0  0  0  0  0  0  0  0  0
   22.1797   20.0870   24.0435 H   0  0  0  0  0  0  0  0  0  0  0  0
   20.3917   19.9500   22.8135 C   0  0  0  0  0  0  0  0  0  0  0  0
   20.5987   20.9065   22.3142 H   0  0  0  0  0  0  0  0  0  0  0  0
   19.3052   19.9122   22.9625 H   0  0  0  0  0  0  0  0  0  0  0  0
   20.8478   18.7882   21.8948 C   0  0  0  0  0  0  0  0  0  0  0  0
   21.9442   18.7984   21.8224 H   0  0  0  0  0  0  0  0  0  0  0  0
   20.5767   17.8220   22.3407 H   0  0  0  0  0  0  0  0  0  0  0  0
   20.2599   18.8694   20.4653 C   0  0  0  0  0  0  0  0  0  0  0  0
   20.7142   18.0789   19.8516 H   0  0  0  0  0  0  0  0  0  0  0  0
   20.5461   19.8225   19.9988 H   0  0  0  0  0  0  0  0  0  0  0  0
   18.7228   18.7107   20.4240 C   0  0  0  0  0  0  0  0  0  0  0  0
   18.4086   17.7768   20.9077 H   0  0  0  0  0  0  0  0  0  0  0  0
   18.3675   18.6861   19.3857 H   0  0  0  0  0  0  0  0  0  0  0  0
   18.2171   19.5455   20.9248 H   0  0  0  0  0  0  0  0  0  0  0  0
   18.7861   19.3473   26.2218 C   0  0  0  0  0  0  0  0  0  0  0  0
   18.8011   20.3261   25.7381 H   0  0  0  0  0  0  0  0  0  0  0  0
   17.7540   19.0545   26.4268 H   0  0  0  0  0  0  0  0  0  0  0  0
   19.3509   19.3864   27.1557 H   0  0  0  0  0  0  0  0  0  0  0  0
  1  2  1  0  0  0  0
  1  3  1  0  0  0  0
  1  4  1  0  0  0  0
  4  5  1  0  0  0  0
  4  6  1  0  0  0  0
  4  7  1  0  0  0  0
  7  8  1  0  0  0  0
  7  9  1  0  0  0  0
  7 10  1  0  0  0  0
 10 11  1  0  0  0  0
 10 12  1  0  0  0  0
 10 13  1  0  0  0  0
 13 14  1  0  0  0  0
 13 15  1  0  0  0  0
 13 16  1  0  0  0  0
 16 17  1  0  0  0  0
 16 18  1  0  0  0  0
 16 19  1  0  0  0  0
 19 20  1  0  0  0  0
 19 21  1  0  0  0  0
 19 22  1  0  0  0  0
  1 23  1  0  0  0  0
 23 24  1  0  0  0  0
 23 25  1  0  0  0  0
 23 26  1  0  0  0  0
M  END
> <VM2 Rank>
94

> <Conf_Id>
567

> <Probability>
0.18

> <Sum Probability>
97.46

> <Delta G>
2.172

> <G>
77.638

> <E>
44.830

> <-TS>
32.808

> <U+W>
23.368

> <U>
73.121

> <W>
-49.753

> <W(PB)>
-51.988

> <W(SA)>
2.234

> <Valence>
2.869

> <Coulomb>
69.886

> <VdW>
0.367

> <VdW6>
-8.311

> <VdW12>
8.678

> <Bond>
0.246

> <Angle>
0.961

> <Pdih>
1.662

> <Idih>
0.000

> <Tether>
0.000

$$$$
VeraChem MOL file


 26 25  0  0  0  0  0  0  0  0999 V2000     
   20.5070   18.9113   26.1977 N   0  3  0  0  0  0  0  0  0  0  0  0
   21.4675   18.5783   26.0231 H   0  0  0  0  0  0  0  0  0  0  0  0
   20.3259   18.6810   27.1877 H   0  0  0  0  0  0  0  0  0  0  0  0
   19.5182   18.1513   25.3239 C   0  0  0  0  0  0  0  0  0  0  0  0
   18.5172   18.5514   25.5028 H   0  0  0  0  0  0  0  0  0  0  0  0
   19.5305   17.1187   25.6822 H   0  0  0  0  0  0  0  0  0  0  0  0
   19.8238   18.1335   23.8091 C   0  0  0  0  0  0  0  0  0  0  0  0
   20.9089   18.0886   23.6535 H   0  0  0  0  0  0  0  0  0  0  0  0
   19.4126   17.2029   23.3963 H   0  0  0  0  0  0  0  0  0  0  0  0
   19.1997   19.3258   23.0401 C   0  0  0  0  0  0  0  0  0  0  0  0
   19.6576   20.2705   23.3551 H   0  0  0  0  0  0  0  0  0  0  0  0
   18.1348   19.3987   23.3006 H   0  0  0  0  0  0  0  0  0  0  0  0
   19.3201   19.1961   21.5015 C   0  0  0  0  0  0  0  0  0  0  0  0
   18.8379   18.2660   21.1705 H   0  0  0  0  0  0  0  0  0  0  0  0
   18.7558   20.0168   21.0375 H   0  0  0  0  0  0  0  0  0  0  0  0
   20.7800   19.2378   20.9907 C   0  0  0  0  0  0  0  0  0  0  0  0
   21.3440   18.3815   21.3836 H   0  0  0  0  0  0  0  0  0  0  0  0
   21.2776   20.1445   21.3622 H   0  0  0  0  0  0  0  0  0  0  0  0
   20.8446   19.2146   19.4485 C   0  0  0  0  0  0  0  0  0  0  0  0
   20.3809   18.3038   19.0478 H   0  0  0  0  0  0  0  0  0  0  0  0
   21.8864   19.2419   19.1037 H   0  0  0  0  0  0  0  0  0  0  0  0
   20.3250   20.0806   19.0180 H   0  0  0  0  0  0  0  0  0  0  0  0
   20.4146   20.4195   26.0054 C   0  0  0  0  0  0  0  0  0  0  0  0
   19.3790   20.7378   26.1432 H   0  0  0  0  0  0  0  0  0  0  0  0
   21.0531   20.9115   26.7425 H   0  0  0  0  0  0  0  0  0  0  0  0
   20.7564   20.6768   25.0019 H   0  0  0  0  0  0  0  0  0  0  0  0
  1  2  1  0  0  0  0
  1  3  1  0  0  0  0
  1  4  1  0  0  0  0
  4  5  1  0  0  0  0
  4  6  1  0  0  0  0
  4  7  1  0  0  0  0
  7  8  1  0  0  0  0
  7  9  1  0  0  0  0
  7 10  1  0  0  0  0
 10 11  1  0  0  0  0
 10 12  1  0  0  0  0
 10 13  1  0  0  0  0
 13 14  1  0  0  0  0
 13 15  1  0  0  0  0
 13 16  1  0  0  0  0
 16 17  1  0  0  0  0
 16 18  1  0  0  0  0
 16 19  1  0  0  0  0
 19 20  1  0  0  0  0
 19 21  1  0  0  0  0
 19 22  1  0  0  0  0
  1 23  1  0  0  0  0
 23 24  1  0  0  0  0
 23 25  1  0  0  0  0
 23 26  1  0  0  0  0
M  END
> <VM2 Rank>
95

> <Conf_Id>
1351

> <Probability>
0.16

> <Sum Probability>
97.62

> <Delta G>
2.243

> <G>
77.709

> <E>
45.732

> <-TS>
31.978

> <U+W>
24.270

> <U>
73.883

> <W>
-49.613

> <W(PB)>
-51.836

> <W(SA)>
2.223

> <Valence>
4.358

> <Coulomb>
69.048

> <VdW>
0.477

> <VdW6>
-7.513

> <VdW12>
7.990

> <Bond>
0.237

> <Angle>
1.266

> <Pdih>
2.854

> <Idih>
0.000

> <Tether>
0.000

$$$$
VeraChem MOL file


 26 25  0  0  0  0  0  0  0  0999 V2000     
   19.6814   18.9406   25.6721 N   0  3  0  0  0  0  0  0  0  0  0  0
   19.8877   18.0472   26.1451 H   0  0  0  0  0  0  0  0  0  0  0  0
   18.7759   18.8007   25.1993 H   0  0  0  0  0  0  0  0  0  0  0  0
   20.7569   19.2492   24.6491 C   0  0  0  0  0  0  0  0  0  0  0  0
   21.7006   19.3711   25.1869 H   0  0  0  0  0  0  0  0  0  0  0  0
   20.5088   20.2026   24.1767 H   0  0  0  0  0  0  0  0  0  0  0  0
   20.9187   18.1607   23.5685 C   0  0  0  0  0  0  0  0  0  0  0  0
   21.7608   18.4306   22.9185 H   0  0  0  0  0  0  0  0  0  0  0  0
   21.2023   17.2152   24.0494 H   0  0  0  0  0  0  0  0  0  0  0  0
   19.6479   17.9357   22.7077 C   0  0  0  0  0  0  0  0  0  0  0  0
   18.8563   17.5056   23.3356 H   0  0  0  0  0  0  0  0  0  0  0  0
   19.8625   17.1716   21.9488 H   0  0  0  0  0  0  0  0  0  0  0  0
   19.0964   19.2114   22.0153 C   0  0  0  0  0  0  0  0  0  0  0  0
   18.2113   18.9358   21.4256 H   0  0  0  0  0  0  0  0  0  0  0  0
   18.7353   19.9147   22.7776 H   0  0  0  0  0  0  0  0  0  0  0  0
   20.1021   19.9465   21.0930 C   0  0  0  0  0  0  0  0  0  0  0  0
   20.9521   20.3207   21.6791 H   0  0  0  0  0  0  0  0  0  0  0  0
   19.6094   20.8361   20.6765 H   0  0  0  0  0  0  0  0  0  0  0  0
   20.6172   19.0721   19.9272 C   0  0  0  0  0  0  0  0  0  0  0  0
   19.7836   18.6751   19.3336 H   0  0  0  0  0  0  0  0  0  0  0  0
   21.2134   18.2262   20.2912 H   0  0  0  0  0  0  0  0  0  0  0  0
   21.2556   19.6620   19.2568 H   0  0  0  0  0  0  0  0  0  0  0  0
   19.5873   20.0738   26.6840 C   0  0  0  0  0  0  0  0  0  0  0  0
   19.3374   21.0007   26.1631 H   0  0  0  0  0  0  0  0  0  0  0  0
   18.8089   19.8390   27.4134 H   0  0  0  0  0  0  0  0  0  0  0  0
   20.5481   20.1821   27.1920 H   0  0  0  0  0  0  0  0  0  0  0  0
  1  2  1  0  0  0  0
  1  3  1  0  0  0  0
  1  4  1  0  0  0  0
  4  5  1  0  0  0  0
  4  6  1  0  0  0  0
  4  7  1  0  0  0  0
  7  8  1  0  0  0  0
  7  9  1  0  0  0  0
  7 10  1  0  0  0  0
 10 11  1  0  0  0  0
 10 12  1  0  0  0  0
 10 13  1  0  0  0  0
 13 14  1  0  0  0  0
 13 15  1  0  0  0  0
 13 16  1  0  0  0  0
 16 17  1  0  0  0  0
 16 18  1  0  0  0  0
 16 19  1  0  0  0  0
 19 20  1  0  0  0  0
 19 21  1  0  0  0  0
 19 22  1  0  0  0  0
  1 23  1  0  0  0  0
 23 24  1  0  0  0  0
 23 25  1  0  0  0  0
 23 26  1  0  0  0  0
M  END
> <VM2 Rank>
96

> <Conf_Id>
1319

> <Probability>
0.14

> <Sum Probability>
97.76

> <Delta G>
2.328

> <G>
77.794

> <E>
44.774

> <-TS>
33.021

> <U+W>
23.312

> <U>
72.853

> <W>
-49.541

> <W(PB)>
-51.774

> <W(SA)>
2.233

> <Valence>
3.035

> <Coulomb>
69.793

> <VdW>
0.025

> <VdW6>
-8.577

> <VdW12>
8.602

> <Bond>
0.254

> <Angle>
1.267

> <Pdih>
1.514

> <Idih>
0.000

> <Tether>
0.000

$$$$
VeraChem MOL file


 26 25  0  0  0  0  0  0  0  0999 V2000     
   20.2723   19.0015   25.6929 N   0  3  0  0  0  0  0  0  0  0  0  0
   21.2181   19.0524   25.2857 H   0  0  0  0  0  0  0  0  0  0  0  0
   20.2198   18.0815   26.1569 H   0  0  0  0  0  0  0  0  0  0  0  0
   19.2308   19.0919   24.5951 C   0  0  0  0  0  0  0  0  0  0  0  0
   19.3119   20.0792   24.1342 H   0  0  0  0  0  0  0  0  0  0  0  0
   18.2468   19.0151   25.0646 H   0  0  0  0  0  0  0  0  0  0  0  0
   19.3702   18.0010   23.5137 C   0  0  0  0  0  0  0  0  0  0  0  0
   19.2522   17.0141   23.9804 H   0  0  0  0  0  0  0  0  0  0  0  0
   18.5384   18.0984   22.8044 H   0  0  0  0  0  0  0  0  0  0  0  0
   20.7172   18.0459   22.7456 C   0  0  0  0  0  0  0  0  0  0  0  0
   20.7164   17.2595   21.9790 H   0  0  0  0  0  0  0  0  0  0  0  0
   21.5340   17.7815   23.4304 H   0  0  0  0  0  0  0  0  0  0  0  0
   21.0443   19.4122   22.0843 C   0  0  0  0  0  0  0  0  0  0  0  0
   21.2004   20.1687   22.8649 H   0  0  0  0  0  0  0  0  0  0  0  0
   22.0061   19.3269   21.5599 H   0  0  0  0  0  0  0  0  0  0  0  0
   19.9770   19.9336   21.0886 C   0  0  0  0  0  0  0  0  0  0  0  0
   20.3060   20.9080   20.7013 H   0  0  0  0  0  0  0  0  0  0  0  0
   19.0297   20.1225   21.6112 H   0  0  0  0  0  0  0  0  0  0  0  0
   19.7336   18.9811   19.8960 C   0  0  0  0  0  0  0  0  0  0  0  0
   20.6701   18.7667   19.3649 H   0  0  0  0  0  0  0  0  0  0  0  0
   19.0369   19.4334   19.1785 H   0  0  0  0  0  0  0  0  0  0  0  0
   19.2984   18.0289   20.2234 H   0  0  0  0  0  0  0  0  0  0  0  0
   20.0625   20.1229   26.7008 C   0  0  0  0  0  0  0  0  0  0  0  0
   20.8194   20.0464   27.4846 H   0  0  0  0  0  0  0  0  0  0  0  0
   20.1542   21.0849   26.1919 H   0  0  0  0  0  0  0  0  0  0  0  0
   19.0667   20.0295   27.1394 H   0  0  0  0  0  0  0  0  0  0  0  0
  1  2  1  0  0  0  0
  1  3  1  0  0  0  0
  1  4  1  0  0  0  0
  4  5  1  0  0  0  0
  4  6  1  0  0  0  0
  4  7  1  0  0  0  0
  7  8  1  0  0  0  0
  7  9  1  0  0  0  0
  7 10  1  0  0  0  0
 10 11  1  0  0  0  0
 10 12  1  0  0  0  0
 10 13  1  0  0  0  0
 13 14  1  0  0  0  0
 13 15  1  0  0  0  0
 13 16  1  0  0  0  0
 16 17  1  0  0  0  0
 16 18  1  0  0  0  0
 16 19  1  0  0  0  0
 19 20  1  0  0  0  0
 19 21  1  0  0  0  0
 19 22  1  0  0  0  0
  1 23  1  0  0  0  0
 23 24  1  0  0  0  0
 23 25  1  0  0  0  0
 23 26  1  0  0  0  0
M  END
> <VM2 Rank>
97

> <Conf_Id>
1508

> <Probability>
0.12

> <Sum Probability>
97.87

> <Delta G>
2.422

> <G>
77.888

> <E>
44.867

> <-TS>
33.021

> <U+W>
23.405

> <U>
72.853

> <W>
-49.448

> <W(PB)>
-51.678

> <W(SA)>
2.230

> <Valence>
3.035

> <Coulomb>
69.793

> <VdW>
0.025

> <VdW6>
-8.577

> <VdW12>
8.602

> <Bond>
0.254

> <Angle>
1.267

> <Pdih>
1.514

> <Idih>
0.000

> <Tether>
0.000

$$$$
VeraChem MOL file


 26 25  0  0  0  0  0  0  0  0999 V2000     
   20.6947   19.2183   25.6403 N   0  3  0  0  0  0  0  0  0  0  0  0
   21.4508   19.7523   26.0974 H   0  0  0  0  0  0  0  0  0  0  0  0
   21.1577   18.3975   25.2226 H   0  0  0  0  0  0  0  0  0  0  0  0
   20.0580   20.0659   24.5504 C   0  0  0  0  0  0  0  0  0  0  0  0
   20.8665   20.4682   23.9350 H   0  0  0  0  0  0  0  0  0  0  0  0
   19.5551   20.9066   25.0348 H   0  0  0  0  0  0  0  0  0  0  0  0
   19.0579   19.3182   23.6403 C   0  0  0  0  0  0  0  0  0  0  0  0
   18.2016   18.9809   24.2382 H   0  0  0  0  0  0  0  0  0  0  0  0
   18.6475   20.0277   22.9107 H   0  0  0  0  0  0  0  0  0  0  0  0
   19.6717   18.1032   22.8967 C   0  0  0  0  0  0  0  0  0  0  0  0
   18.9008   17.6482   22.2607 H   0  0  0  0  0  0  0  0  0  0  0  0
   19.9373   17.3288   23.6288 H   0  0  0  0  0  0  0  0  0  0  0  0
   20.9237   18.4296   22.0384 C   0  0  0  0  0  0  0  0  0  0  0  0
   21.7476   18.7391   22.6951 H   0  0  0  0  0  0  0  0  0  0  0  0
   21.2658   17.5060   21.5515 H   0  0  0  0  0  0  0  0  0  0  0  0
   20.7133   19.5172   20.9543 C   0  0  0  0  0  0  0  0  0  0  0  0
   21.6643   19.6737   20.4263 H   0  0  0  0  0  0  0  0  0  0  0  0
   20.4684   20.4794   21.4236 H   0  0  0  0  0  0  0  0  0  0  0  0
   19.6253   19.1497   19.9198 C   0  0  0  0  0  0  0  0  0  0  0  0
   19.5759   19.9080   19.1277 H   0  0  0  0  0  0  0  0  0  0  0  0
   18.6326   19.0911   20.3831 H   0  0  0  0  0  0  0  0  0  0  0  0
   19.8414   18.1833   19.4463 H   0  0  0  0  0  0  0  0  0  0  0  0
   19.6634   18.7879   26.6767 C   0  0  0  0  0  0  0  0  0  0  0  0
   18.9012   18.1731   26.1937 H   0  0  0  0  0  0  0  0  0  0  0  0
   20.1615   18.2092   27.4577 H   0  0  0  0  0  0  0  0  0  0  0  0
   19.2017   19.6761   27.1135 H   0  0  0  0  0  0  0  0  0  0  0  0
  1  2  1  0  0  0  0
  1  3  1  0  0  0  0
  1  4  1  0  0  0  0
  4  5  1  0  0  0  0
  4  6  1  0  0  0  0
  4  7  1  0  0  0  0
  7  8  1  0  0  0  0
  7  9  1  0  0  0  0
  7 10  1  0  0  0  0
 10 11  1  0  0  0  0
 10 12  1  0  0  0  0
 10 13  1  0  0  0  0
 13 14  1  0  0  0  0
 13 15  1  0  0  0  0
 13 16  1  0  0  0  0
 16 17  1  0  0  0  0
 16 18  1  0  0  0  0
 16 19  1  0  0  0  0
 19 20  1  0  0  0  0
 19 21  1  0  0  0  0
 19 22  1  0  0  0  0
  1 23  1  0  0  0  0
 23 24  1  0  0  0  0
 23 25  1  0  0  0  0
 23 26  1  0  0  0  0
M  END
> <VM2 Rank>
98

> <Conf_Id>
393

> <Probability>
0.11

> <Sum Probability>
97.98

> <Delta G>
2.477

> <G>
77.943

> <E>
44.702

> <-TS>
33.241

> <U+W>
23.241

> <U>
73.340

> <W>
-50.100

> <W(PB)>
-52.272

> <W(SA)>
2.172

> <Valence>
3.289

> <Coulomb>
69.804

> <VdW>
0.247

> <VdW6>
-9.372

> <VdW12>
9.619

> <Bond>
0.294

> <Angle>
1.399

> <Pdih>
1.596

> <Idih>
0.000

> <Tether>
0.000

$$$$
VeraChem MOL file


 26 25  0  0  0  0  0  0  0  0999 V2000     
   19.9445   19.1058   26.3242 N   0  3  0  0  0  0  0  0  0  0  0  0
   20.4683   19.1382   27.2133 H   0  0  0  0  0  0  0  0  0  0  0  0
   19.0632   18.6230   26.5571 H   0  0  0  0  0  0  0  0  0  0  0  0
   20.7373   18.2926   25.3098 C   0  0  0  0  0  0  0  0  0  0  0  0
   21.0258   17.3703   25.8206 H   0  0  0  0  0  0  0  0  0  0  0  0
   21.6532   18.8371   25.0671 H   0  0  0  0  0  0  0  0  0  0  0  0
   19.9863   17.9075   24.0153 C   0  0  0  0  0  0  0  0  0  0  0  0
   20.3851   16.9447   23.6693 H   0  0  0  0  0  0  0  0  0  0  0  0
   18.9233   17.7404   24.2339 H   0  0  0  0  0  0  0  0  0  0  0  0
   20.1539   18.9416   22.8757 C   0  0  0  0  0  0  0  0  0  0  0  0
   21.2248   19.0980   22.6911 H   0  0  0  0  0  0  0  0  0  0  0  0
   19.7399   19.9112   23.1753 H   0  0  0  0  0  0  0  0  0  0  0  0
   19.4586   18.4753   21.5737 C   0  0  0  0  0  0  0  0  0  0  0  0
   19.9106   17.5356   21.2274 H   0  0  0  0  0  0  0  0  0  0  0  0
   18.4053   18.2497   21.7907 H   0  0  0  0  0  0  0  0  0  0  0  0
   19.5118   19.5237   20.4359 C   0  0  0  0  0  0  0  0  0  0  0  0
   19.0373   20.4576   20.7683 H   0  0  0  0  0  0  0  0  0  0  0  0
   18.9110   19.1581   19.5914 H   0  0  0  0  0  0  0  0  0  0  0  0
   20.9450   19.8178   19.9370 C   0  0  0  0  0  0  0  0  0  0  0  0
   21.5519   20.2993   20.7136 H   0  0  0  0  0  0  0  0  0  0  0  0
   20.9195   20.4940   19.0726 H   0  0  0  0  0  0  0  0  0  0  0  0
   21.4521   18.8953   19.6260 H   0  0  0  0  0  0  0  0  0  0  0  0
   19.6707   20.5256   25.8453 C   0  0  0  0  0  0  0  0  0  0  0  0
   18.9969   20.4925   24.9876 H   0  0  0  0  0  0  0  0  0  0  0  0
   19.2009   21.0895   26.6542 H   0  0  0  0  0  0  0  0  0  0  0  0
   20.6137   20.9993   25.5642 H   0  0  0  0  0  0  0  0  0  0  0  0
  1  2  1  0  0  0  0
  1  3  1  0  0  0  0
  1  4  1  0  0  0  0
  4  5  1  0  0  0  0
  4  6  1  0  0  0  0
  4  7  1  0  0  0  0
  7  8  1  0  0  0  0
  7  9  1  0  0  0  0
  7 10  1  0  0  0  0
 10 11  1  0  0  0  0
 10 12  1  0  0  0  0
 10 13  1  0  0  0  0
 13 14  1  0  0  0  0
 13 15  1  0  0  0  0
 13 16  1  0  0  0  0
 16 17  1  0  0  0  0
 16 18  1  0  0  0  0
 16 19  1  0  0  0  0
 19 20  1  0  0  0  0
 19 21  1  0  0  0  0
 19 22  1  0  0  0  0
  1 23  1  0  0  0  0
 23 24  1  0  0  0  0
 23 25  1  0  0  0  0
 23 26  1  0  0  0  0
M  END
> <VM2 Rank>
99

> <Conf_Id>
752

> <Probability>
0.10

> <Sum Probability>
98.08

> <Delta G>
2.506

> <G>
77.972

> <E>
45.666

> <-TS>
32.307

> <U+W>
24.204

> <U>
73.665

> <W>
-49.461

> <W(PB)>
-51.723

> <W(SA)>
2.262

> <Valence>
4.363

> <Coulomb>
68.782

> <VdW>
0.519

> <VdW6>
-7.471

> <VdW12>
7.991

> <Bond>
0.232

> <Angle>
1.225

> <Pdih>
2.906

> <Idih>
0.000

> <Tether>
0.000

$$$$
VeraChem MOL file


 26 25  0  0  0  0  0  0  0  0999 V2000     
   19.2283   19.0680   25.5883 N   0  3  0  0  0  0  0  0  0  0  0  0
   18.9717   18.1735   25.1451 H   0  0  0  0  0  0  0  0  0  0  0  0
   18.3497   19.4344   25.9875 H   0  0  0  0  0  0  0  0  0  0  0  0
   19.7548   20.0349   24.5397 C   0  0  0  0  0  0  0  0  0  0  0  0
   20.0418   20.9565   25.0521 H   0  0  0  0  0  0  0  0  0  0  0  0
   18.9267   20.2693   23.8663 H   0  0  0  0  0  0  0  0  0  0  0  0
   20.9469   19.5119   23.7072 C   0  0  0  0  0  0  0  0  0  0  0  0
   21.2550   20.2951   23.0031 H   0  0  0  0  0  0  0  0  0  0  0  0
   21.8098   19.3509   24.3660 H   0  0  0  0  0  0  0  0  0  0  0  0
   20.6458   18.2030   22.9312 C   0  0  0  0  0  0  0  0  0  0  0  0
   20.4920   17.3857   23.6485 H   0  0  0  0  0  0  0  0  0  0  0  0
   21.5355   17.9184   22.3540 H   0  0  0  0  0  0  0  0  0  0  0  0
   19.4167   18.2750   21.9851 C   0  0  0  0  0  0  0  0  0  0  0  0
   19.3040   17.3047   21.4821 H   0  0  0  0  0  0  0  0  0  0  0  0
   18.5033   18.4063   22.5803 H   0  0  0  0  0  0  0  0  0  0  0  0
   19.4777   19.3905   20.9106 C   0  0  0  0  0  0  0  0  0  0  0  0
   19.4890   20.3789   21.3890 H   0  0  0  0  0  0  0  0  0  0  0  0
   18.5540   19.3548   20.3163 H   0  0  0  0  0  0  0  0  0  0  0  0
   20.6873   19.2587   19.9574 C   0  0  0  0  0  0  0  0  0  0  0  0
   20.6373   20.0169   19.1654 H   0  0  0  0  0  0  0  0  0  0  0  0
   20.7052   18.2719   19.4768 H   0  0  0  0  0  0  0  0  0  0  0  0
   21.6363   19.3991   20.4895 H   0  0  0  0  0  0  0  0  0  0  0  0
   20.2504   18.8480   26.6975 C   0  0  0  0  0  0  0  0  0  0  0  0
   21.1532   18.4040   26.2734 H   0  0  0  0  0  0  0  0  0  0  0  0
   20.4908   19.8082   27.1591 H   0  0  0  0  0  0  0  0  0  0  0  0
   19.8264   18.1748   27.4458 H   0  0  0  0  0  0  0  0  0  0  0  0
  1  2  1  0  0  0  0
  1  3  1  0  0  0  0
  1  4  1  0  0  0  0
  4  5  1  0  0  0  0
  4  6  1  0  0  0  0
  4  7  1  0  0  0  0
  7  8  1  0  0  0  0
  7  9  1  0  0  0  0
  7 10  1  0  0  0  0
 10 11  1  0  0  0  0
 10 12  1  0  0  0  0
 10 13  1  0  0  0  0
 13 14  1  0  0  0  0
 13 15  1  0  0  0  0
 13 16  1  0  0  0  0
 16 17  1  0  0  0  0
 16 18  1  0  0  0  0
 16 19  1  0  0  0  0
 19 20  1  0  0  0  0
 19 21  1  0  0  0  0
 19 22  1  0  0  0  0
  1 23  1  0  0  0  0
 23 24  1  0  0  0  0
 23 25  1  0  0  0  0
 23 26  1  0  0  0  0
M  END
> <VM2 Rank>
100

> <Conf_Id>
526

> <Probability>
0.09

> <Sum Probability>
98.18

> <Delta G>
2.557

> <G>
78.023

> <E>
44.782

> <-TS>
33.241

> <U+W>
23.320

> <U>
73.340

> <W>
-50.020

> <W(PB)>
-52.188

> <W(SA)>
2.168

> <Valence>
3.289

> <Coulomb>
69.804

> <VdW>
0.246

> <VdW6>
-9.372

> <VdW12>
9.618

> <Bond>
0.294

> <Angle>
1.399

> <Pdih>
1.596

> <Idih>
0.000

> <Tether>
0.000

$$$$
VeraChem MOL file


 26 25  0  0  0  0  0  0  0  0999 V2000     
   20.1151   19.3499   25.9276 N   0  3  0  0  0  0  0  0  0  0  0  0
   20.5505   19.1957   26.8507 H   0  0  0  0  0  0  0  0  0  0  0  0
   19.1453   19.6317   26.1359 H   0  0  0  0  0  0  0  0  0  0  0  0
   20.1292   18.0467   25.1436 C   0  0  0  0  0  0  0  0  0  0  0  0
   20.1032   17.2404   25.8811 H   0  0  0  0  0  0  0  0  0  0  0  0
   21.0795   17.9748   24.6096 H   0  0  0  0  0  0  0  0  0  0  0  0
   18.9417   17.8400   24.1745 C   0  0  0  0  0  0  0  0  0  0  0  0
   18.9862   16.8123   23.7903 H   0  0  0  0  0  0  0  0  0  0  0  0
   18.0033   17.9092   24.7403 H   0  0  0  0  0  0  0  0  0  0  0  0
   18.8869   18.8176   22.9746 C   0  0  0  0  0  0  0  0  0  0  0  0
   18.7383   19.8434   23.3352 H   0  0  0  0  0  0  0  0  0  0  0  0
   17.9988   18.5800   22.3728 H   0  0  0  0  0  0  0  0  0  0  0  0
   20.1410   18.7442   22.0703 C   0  0  0  0  0  0  0  0  0  0  0  0
   21.0401   18.9913   22.6495 H   0  0  0  0  0  0  0  0  0  0  0  0
   20.2714   17.7150   21.7082 H   0  0  0  0  0  0  0  0  0  0  0  0
   20.0360   19.7045   20.8648 C   0  0  0  0  0  0  0  0  0  0  0  0
   19.9028   20.7353   21.2221 H   0  0  0  0  0  0  0  0  0  0  0  0
   19.1453   19.4580   20.2700 H   0  0  0  0  0  0  0  0  0  0  0  0
   21.2883   19.6326   19.9653 C   0  0  0  0  0  0  0  0  0  0  0  0
   21.4295   18.6202   19.5652 H   0  0  0  0  0  0  0  0  0  0  0  0
   22.1923   19.9086   20.5239 H   0  0  0  0  0  0  0  0  0  0  0  0
   21.1949   20.3206   19.1151 H   0  0  0  0  0  0  0  0  0  0  0  0
   20.8698   20.4545   25.1962 C   0  0  0  0  0  0  0  0  0  0  0  0
   21.9017   20.1353   25.0345 H   0  0  0  0  0  0  0  0  0  0  0  0
   20.3916   20.6541   24.2366 H   0  0  0  0  0  0  0  0  0  0  0  0
   20.8570   21.3596   25.8075 H   0  0  0  0  0  0  0  0  0  0  0  0
  1  2  1  0  0  0  0
  1  3  1  0  0  0  0
  1  4  1  0  0  0  0
  4  5  1  0  0  0  0
  4  6  1  0  0  0  0
  4  7  1  0  0  0  0
  7  8  1  0  0  0  0
  7  9  1  0  0  0  0
  7 10  1  0  0  0  0
 10 11  1  0  0  0  0
 10 12  1  0  0  0  0
 10 13  1  0  0  0  0
 13 14  1  0  0  0  0
 13 15  1  0  0  0  0
 13 16  1  0  0  0  0
 16 17  1  0  0  0  0
 16 18  1  0  0  0  0
 16 19  1  0  0  0  0
 19 20  1  0  0  0  0
 19 21  1  0  0  0  0
 19 22  1  0  0  0  0
  1 23  1  0  0  0  0
 23 24  1  0  0  0  0
 23 25  1  0  0  0  0
 23 26  1  0  0  0  0
M  END
> <VM2 Rank>
101

> <Conf_Id>
1871

> <Probability>
0.08

> <Sum Probability>
98.26

> <Delta G>
2.627

> <G>
78.093

> <E>
45.156

> <-TS>
32.937

> <U+W>
23.694

> <U>
73.514

> <W>
-49.820

> <W(PB)>
-52.044

> <W(SA)>
2.225

> <Valence>
4.050

> <Coulomb>
69.538

> <VdW>
-0.074

> <VdW6>
-8.211

> <VdW12>
8.137

> <Bond>
0.215

> <Angle>
1.189

> <Pdih>
2.646

> <Idih>
0.000

> <Tether>
0.000

$$$$
VeraChem MOL file


 26 25  0  0  0  0  0  0  0  0999 V2000     
   20.6274   18.9470   26.0631 N   0  3  0  0  0  0  0  0  0  0  0  0
   21.5354   18.9717   25.5749 H   0  0  0  0  0  0  0  0  0  0  0  0
   20.8266   18.5021   26.9731 H   0  0  0  0  0  0  0  0  0  0  0  0
   19.6356   18.0899   25.2926 C   0  0  0  0  0  0  0  0  0  0  0  0
   18.6255   18.3943   25.5777 H   0  0  0  0  0  0  0  0  0  0  0  0
   19.7806   17.0609   25.6316 H   0  0  0  0  0  0  0  0  0  0  0  0
   19.7909   18.1116   23.7555 C   0  0  0  0  0  0  0  0  0  0  0  0
   20.8009   17.7715   23.4941 H   0  0  0  0  0  0  0  0  0  0  0  0
   19.0956   17.3732   23.3349 H   0  0  0  0  0  0  0  0  0  0  0  0
   19.5097   19.4935   23.1154 C   0  0  0  0  0  0  0  0  0  0  0  0
   20.2947   20.2049   23.4033 H   0  0  0  0  0  0  0  0  0  0  0  0
   18.5652   19.8884   23.5146 H   0  0  0  0  0  0  0  0  0  0  0  0
   19.4112   19.4486   21.5705 C   0  0  0  0  0  0  0  0  0  0  0  0
   18.6080   18.7606   21.2721 H   0  0  0  0  0  0  0  0  0  0  0  0
   19.1131   20.4433   21.2111 H   0  0  0  0  0  0  0  0  0  0  0  0
   20.7330   19.0384   20.8788 C   0  0  0  0  0  0  0  0  0  0  0  0
   21.0111   18.0163   21.1684 H   0  0  0  0  0  0  0  0  0  0  0  0
   21.5468   19.6969   21.2131 H   0  0  0  0  0  0  0  0  0  0  0  0
   20.6170   19.1093   19.3411 C   0  0  0  0  0  0  0  0  0  0  0  0
   19.8303   18.4377   18.9733 H   0  0  0  0  0  0  0  0  0  0  0  0
   21.5616   18.8128   18.8670 H   0  0  0  0  0  0  0  0  0  0  0  0
   20.3793   20.1284   19.0091 H   0  0  0  0  0  0  0  0  0  0  0  0
   20.0834   20.3517   26.3000 C   0  0  0  0  0  0  0  0  0  0  0  0
   19.9065   20.8446   25.3434 H   0  0  0  0  0  0  0  0  0  0  0  0
   19.1467   20.2826   26.8574 H   0  0  0  0  0  0  0  0  0  0  0  0
   20.8129   20.9236   26.8777 H   0  0  0  0  0  0  0  0  0  0  0  0
  1  2  1  0  0  0  0
  1  3  1  0  0  0  0
  1  4  1  0  0  0  0
  4  5  1  0  0  0  0
  4  6  1  0  0  0  0
  4  7  1  0  0  0  0
  7  8  1  0  0  0  0
  7  9  1  0  0  0  0
  7 10  1  0  0  0  0
 10 11  1  0  0  0  0
 10 12  1  0  0  0  0
 10 13  1  0  0  0  0
 13 14  1  0  0  0  0
 13 15  1  0  0  0  0
 13 16  1  0  0  0  0
 16 17  1  0  0  0  0
 16 18  1  0  0  0  0
 16 19  1  0  0  0  0
 19 20  1  0  0  0  0
 19 21  1  0  0  0  0
 19 22  1  0  0  0  0
  1 23  1  0  0  0  0
 23 24  1  0  0  0  0
 23 25  1  0  0  0  0
 23 26  1  0  0  0  0
M  END
> <VM2 Rank>
102

> <Conf_Id>
563

> <Probability>
0.07

> <Sum Probability>
98.33

> <Delta G>
2.714

> <G>
78.180

> <E>
45.547

> <-TS>
32.633

> <U+W>
24.086

> <U>
73.664

> <W>
-49.578

> <W(PB)>
-51.836

> <W(SA)>
2.258

> <Valence>
4.219

> <Coulomb>
69.065

> <VdW>
0.380

> <VdW6>
-7.612

> <VdW12>
7.992

> <Bond>
0.225

> <Angle>
1.067

> <Pdih>
2.927

> <Idih>
0.000

> <Tether>
0.000

$$$$
VeraChem MOL file


 26 25  0  0  0  0  0  0  0  0999 V2000     
   19.4551   18.7674   25.9585 N   0  3  0  0  0  0  0  0  0  0  0  0
   19.4438   18.5961   26.9764 H   0  0  0  0  0  0  0  0  0  0  0  0
   18.9927   17.9436   25.5450 H   0  0  0  0  0  0  0  0  0  0  0  0
   20.8956   18.8603   25.4810 C   0  0  0  0  0  0  0  0  0  0  0  0
   21.4966   18.2713   26.1786 H   0  0  0  0  0  0  0  0  0  0  0  0
   21.2170   19.9016   25.5631 H   0  0  0  0  0  0  0  0  0  0  0  0
   21.1599   18.3267   24.0551 C   0  0  0  0  0  0  0  0  0  0  0  0
   22.2427   18.3631   23.8767 H   0  0  0  0  0  0  0  0  0  0  0  0
   20.8739   17.2679   24.0036 H   0  0  0  0  0  0  0  0  0  0  0  0
   20.4352   19.1190   22.9416 C   0  0  0  0  0  0  0  0  0  0  0  0
   20.6540   20.1901   23.0507 H   0  0  0  0  0  0  0  0  0  0  0  0
   19.3517   18.9949   23.0566 H   0  0  0  0  0  0  0  0  0  0  0  0
   20.8586   18.6449   21.5303 C   0  0  0  0  0  0  0  0  0  0  0  0
   21.9522   18.7069   21.4428 H   0  0  0  0  0  0  0  0  0  0  0  0
   20.5982   17.5852   21.4016 H   0  0  0  0  0  0  0  0  0  0  0  0
   20.2278   19.4749   20.3858 C   0  0  0  0  0  0  0  0  0  0  0  0
   20.6589   19.1428   19.4310 H   0  0  0  0  0  0  0  0  0  0  0  0
   20.5057   20.5323   20.4967 H   0  0  0  0  0  0  0  0  0  0  0  0
   18.6891   19.3473   20.3083 C   0  0  0  0  0  0  0  0  0  0  0  0
   18.3041   19.8756   19.4265 H   0  0  0  0  0  0  0  0  0  0  0  0
   18.2029   19.7820   21.1903 H   0  0  0  0  0  0  0  0  0  0  0  0
   18.3833   18.2960   20.2291 H   0  0  0  0  0  0  0  0  0  0  0  0
   18.6866   20.0495   25.6564 C   0  0  0  0  0  0  0  0  0  0  0  0
   19.1800   20.8871   26.1542 H   0  0  0  0  0  0  0  0  0  0  0  0
   18.6665   20.2223   24.5797 H   0  0  0  0  0  0  0  0  0  0  0  0
   17.6655   19.9497   26.0312 H   0  0  0  0  0  0  0  0  0  0  0  0
  1  2  1  0  0  0  0
  1  3  1  0  0  0  0
  1  4  1  0  0  0  0
  4  5  1  0  0  0  0
  4  6  1  0  0  0  0
  4  7  1  0  0  0  0
  7  8  1  0  0  0  0
  7  9  1  0  0  0  0
  7 10  1  0  0  0  0
 10 11  1  0  0  0  0
 10 12  1  0  0  0  0
 10 13  1  0  0  0  0
 13 14  1  0  0  0  0
 13 15  1  0  0  0  0
 13 16  1  0  0  0  0
 16 17  1  0  0  0  0
 16 18  1  0  0  0  0
 16 19  1  0  0  0  0
 19 20  1  0  0  0  0
 19 21  1  0  0  0  0
 19 22  1  0  0  0  0
  1 23  1  0  0  0  0
 23 24  1  0  0  0  0
 23 25  1  0  0  0  0
 23 26  1  0  0  0  0
M  END
> <VM2 Rank>
103

> <Conf_Id>
1558

> <Probability>
0.07

> <Sum Probability>
98.40

> <Delta G>
2.742

> <G>
78.208

> <E>
45.580

> <-TS>
32.628

> <U+W>
24.118

> <U>
73.676

> <W>
-49.558

> <W(PB)>
-51.785

> <W(SA)>
2.228

> <Valence>
4.236

> <Coulomb>
69.060

> <VdW>
0.379

> <VdW6>
-7.629

> <VdW12>
8.009

> <Bond>
0.224

> <Angle>
1.075

> <Pdih>
2.937

> <Idih>
0.000

> <Tether>
0.000

$$$$
VeraChem MOL file


 26 25  0  0  0  0  0  0  0  0999 V2000     
   19.2743   18.4738   25.3143 N   0  3  0  0  0  0  0  0  0  0  0  0
   18.9097   18.1953   24.3922 H   0  0  0  0  0  0  0  0  0  0  0  0
   18.5164   18.2535   25.9798 H   0  0  0  0  0  0  0  0  0  0  0  0
   19.5477   19.9683   25.3341 C   0  0  0  0  0  0  0  0  0  0  0  0
   19.9103   20.2150   26.3351 H   0  0  0  0  0  0  0  0  0  0  0  0
   18.5905   20.4768   25.1933 H   0  0  0  0  0  0  0  0  0  0  0  0
   20.5556   20.4991   24.2872 C   0  0  0  0  0  0  0  0  0  0  0  0
   20.7197   21.5617   24.5102 H   0  0  0  0  0  0  0  0  0  0  0  0
   21.5337   20.0173   24.4126 H   0  0  0  0  0  0  0  0  0  0  0  0
   20.0788   20.3885   22.8158 C   0  0  0  0  0  0  0  0  0  0  0  0
   20.6208   21.1401   22.2252 H   0  0  0  0  0  0  0  0  0  0  0  0
   19.0154   20.6567   22.7468 H   0  0  0  0  0  0  0  0  0  0  0  0
   20.3255   19.0010   22.1739 C   0  0  0  0  0  0  0  0  0  0  0  0
   21.3875   18.7362   22.2706 H   0  0  0  0  0  0  0  0  0  0  0  0
   19.7575   18.2264   22.7000 H   0  0  0  0  0  0  0  0  0  0  0  0
   19.9284   18.9825   20.6809 C   0  0  0  0  0  0  0  0  0  0  0  0
   20.5028   19.7432   20.1338 H   0  0  0  0  0  0  0  0  0  0  0  0
   18.8677   19.2503   20.5755 H   0  0  0  0  0  0  0  0  0  0  0  0
   20.1731   17.5992   20.0409 C   0  0  0  0  0  0  0  0  0  0  0  0
   21.2326   17.3180   20.1011 H   0  0  0  0  0  0  0  0  0  0  0  0
   19.8866   17.6063   18.9812 H   0  0  0  0  0  0  0  0  0  0  0  0
   19.5839   16.8212   20.5435 H   0  0  0  0  0  0  0  0  0  0  0  0
   20.5245   17.6776   25.6700 C   0  0  0  0  0  0  0  0  0  0  0  0
   20.8751   17.9833   26.6582 H   0  0  0  0  0  0  0  0  0  0  0  0
   20.2800   16.6131   25.6784 H   0  0  0  0  0  0  0  0  0  0  0  0
   21.2993   17.8707   24.9254 H   0  0  0  0  0  0  0  0  0  0  0  0
  1  2  1  0  0  0  0
  1  3  1  0  0  0  0
  1  4  1  0  0  0  0
  4  5  1  0  0  0  0
  4  6  1  0  0  0  0
  4  7  1  0  0  0  0
  7  8  1  0  0  0  0
  7  9  1  0  0  0  0
  7 10  1  0  0  0  0
 10 11  1  0  0  0  0
 10 12  1  0  0  0  0
 10 13  1  0  0  0  0
 13 14  1  0  0  0  0
 13 15  1  0  0  0  0
 13 16  1  0  0  0  0
 16 17  1  0  0  0  0
 16 18  1  0  0  0  0
 16 19  1  0  0  0  0
 19 20  1  0  0  0  0
 19 21  1  0  0  0  0
 19 22  1  0  0  0  0
  1 23  1  0  0  0  0
 23 24  1  0  0  0  0
 23 25  1  0  0  0  0
 23 26  1  0  0  0  0
M  END
> <VM2 Rank>
104

> <Conf_Id>
972

> <Probability>
0.07

> <Sum Probability>
98.47

> <Delta G>
2.750

> <G>
78.216

> <E>
45.854

> <-TS>
32.362

> <U+W>
24.393

> <U>
74.362

> <W>
-49.970

> <W(PB)>
-52.197

> <W(SA)>
2.227

> <Valence>
3.851

> <Coulomb>
70.383

> <VdW>
0.128

> <VdW6>
-7.957

> <VdW12>
8.084

> <Bond>
0.231

> <Angle>
1.282

> <Pdih>
2.338

> <Idih>
0.000

> <Tether>
0.000

$$$$
VeraChem MOL file


 26 25  0  0  0  0  0  0  0  0999 V2000     
   20.5083   18.8758   25.9958 N   0  3  0  0  0  0  0  0  0  0  0  0
   21.1563   18.1661   25.6217 H   0  0  0  0  0  0  0  0  0  0  0  0
   20.4829   18.7031   27.0132 H   0  0  0  0  0  0  0  0  0  0  0  0
   19.1161   18.6774   25.4180 C   0  0  0  0  0  0  0  0  0  0  0  0
   18.5849   19.6310   25.4699 H   0  0  0  0  0  0  0  0  0  0  0  0
   18.6000   17.9735   26.0760 H   0  0  0  0  0  0  0  0  0  0  0  0
   19.0663   18.1115   23.9810 C   0  0  0  0  0  0  0  0  0  0  0  0
   19.5643   17.1332   23.9573 H   0  0  0  0  0  0  0  0  0  0  0  0
   18.0139   17.9283   23.7269 H   0  0  0  0  0  0  0  0  0  0  0  0
   19.6910   19.0424   22.9153 C   0  0  0  0  0  0  0  0  0  0  0  0
   20.7664   19.1402   23.1067 H   0  0  0  0  0  0  0  0  0  0  0  0
   19.2520   20.0459   23.0010 H   0  0  0  0  0  0  0  0  0  0  0  0
   19.4727   18.5022   21.4813 C   0  0  0  0  0  0  0  0  0  0  0  0
   19.9516   17.5186   21.3787 H   0  0  0  0  0  0  0  0  0  0  0  0
   18.3983   18.3411   21.3170 H   0  0  0  0  0  0  0  0  0  0  0  0
   20.0000   19.4514   20.3778 C   0  0  0  0  0  0  0  0  0  0  0  0
   19.5057   20.4294   20.4613 H   0  0  0  0  0  0  0  0  0  0  0  0
   19.7133   19.0455   19.3975 H   0  0  0  0  0  0  0  0  0  0  0  0
   21.5340   19.6400   20.4089 C   0  0  0  0  0  0  0  0  0  0  0  0
   22.0520   18.6735   20.3587 H   0  0  0  0  0  0  0  0  0  0  0  0
   21.8588   20.1579   21.3197 H   0  0  0  0  0  0  0  0  0  0  0  0
   21.8642   20.2421   19.5525 H   0  0  0  0  0  0  0  0  0  0  0  0
   21.0195   20.2894   25.7390 C   0  0  0  0  0  0  0  0  0  0  0  0
   20.3326   21.0057   26.1950 H   0  0  0  0  0  0  0  0  0  0  0  0
   22.0108   20.3965   26.1851 H   0  0  0  0  0  0  0  0  0  0  0  0
   21.0795   20.4704   24.6651 H   0  0  0  0  0  0  0  0  0  0  0  0
  1  2  1  0  0  0  0
  1  3  1  0  0  0  0
  1  4  1  0  0  0  0
  4  5  1  0  0  0  0
  4  6  1  0  0  0  0
  4  7  1  0  0  0  0
  7  8  1  0  0  0  0
  7  9  1  0  0  0  0
  7 10  1  0  0  0  0
 10 11  1  0  0  0  0
 10 12  1  0  0  0  0
 10 13  1  0  0  0  0
 13 14  1  0  0  0  0
 13 15  1  0  0  0  0
 13 16  1  0  0  0  0
 16 17  1  0  0  0  0
 16 18  1  0  0  0  0
 16 19  1  0  0  0  0
 19 20  1  0  0  0  0
 19 21  1  0  0  0  0
 19 22  1  0  0  0  0
  1 23  1  0  0  0  0
 23 24  1  0  0  0  0
 23 25  1  0  0  0  0
 23 26  1  0  0  0  0
M  END
> <VM2 Rank>
105

> <Conf_Id>
557

> <Probability>
0.07

> <Sum Probability>
98.53

> <Delta G>
2.763

> <G>
78.229

> <E>
45.601

> <-TS>
32.628

> <U+W>
24.139

> <U>
73.676

> <W>
-49.536

> <W(PB)>
-51.781

> <W(SA)>
2.245

> <Valence>
4.237

> <Coulomb>
69.060

> <VdW>
0.379

> <VdW6>
-7.629

> <VdW12>
8.008

> <Bond>
0.224

> <Angle>
1.075

> <Pdih>
2.937

> <Idih>
0.000

> <Tether>
0.000

$$$$
VeraChem MOL file


 26 25  0  0  0  0  0  0  0  0999 V2000     
   20.7838   18.6193   25.3679 N   0  3  0  0  0  0  0  0  0  0  0  0
   21.5214   18.5434   26.0862 H   0  0  0  0  0  0  0  0  0  0  0  0
   21.2583   18.4213   24.4755 H   0  0  0  0  0  0  0  0  0  0  0  0
   20.2297   20.0341   25.3579 C   0  0  0  0  0  0  0  0  0  0  0  0
   21.0798   20.7167   25.2806 H   0  0  0  0  0  0  0  0  0  0  0  0
   19.7577   20.2007   26.3295 H   0  0  0  0  0  0  0  0  0  0  0  0
   19.2146   20.3695   24.2396 C   0  0  0  0  0  0  0  0  0  0  0  0
   18.3402   19.7088   24.2996 H   0  0  0  0  0  0  0  0  0  0  0  0
   18.8353   21.3796   24.4435 H   0  0  0  0  0  0  0  0  0  0  0  0
   19.8054   20.3622   22.8059 C   0  0  0  0  0  0  0  0  0  0  0  0
   20.7996   20.8301   22.8094 H   0  0  0  0  0  0  0  0  0  0  0  0
   19.1717   20.9996   22.1736 H   0  0  0  0  0  0  0  0  0  0  0  0
   19.8751   18.9574   22.1580 C   0  0  0  0  0  0  0  0  0  0  0  0
   20.5437   18.3030   22.7275 H   0  0  0  0  0  0  0  0  0  0  0  0
   18.8798   18.4926   22.1827 H   0  0  0  0  0  0  0  0  0  0  0  0
   20.3709   19.0254   20.6962 C   0  0  0  0  0  0  0  0  0  0  0  0
   21.3649   19.4931   20.6627 H   0  0  0  0  0  0  0  0  0  0  0  0
   19.7001   19.6649   20.1054 H   0  0  0  0  0  0  0  0  0  0  0  0
   20.4420   17.6251   20.0504 C   0  0  0  0  0  0  0  0  0  0  0  0
   19.4549   17.1448   20.0392 H   0  0  0  0  0  0  0  0  0  0  0  0
   21.1338   16.9718   20.5980 H   0  0  0  0  0  0  0  0  0  0  0  0
   20.7944   17.6942   19.0131 H   0  0  0  0  0  0  0  0  0  0  0  0
   19.6866   17.5969   25.6411 C   0  0  0  0  0  0  0  0  0  0  0  0
   18.9432   17.6435   24.8428 H   0  0  0  0  0  0  0  0  0  0  0  0
   20.1285   16.5986   25.6741 H   0  0  0  0  0  0  0  0  0  0  0  0
   19.2160   17.8239   26.6001 H   0  0  0  0  0  0  0  0  0  0  0  0
  1  2  1  0  0  0  0
  1  3  1  0  0  0  0
  1  4  1  0  0  0  0
  4  5  1  0  0  0  0
  4  6  1  0  0  0  0
  4  7  1  0  0  0  0
  7  8  1  0  0  0  0
  7  9  1  0  0  0  0
  7 10  1  0  0  0  0
 10 11  1  0  0  0  0
 10 12  1  0  0  0  0
 10 13  1  0  0  0  0
 13 14  1  0  0  0  0
 13 15  1  0  0  0  0
 13 16  1  0  0  0  0
 16 17  1  0  0  0  0
 16 18  1  0  0  0  0
 16 19  1  0  0  0  0
 19 20  1  0  0  0  0
 19 21  1  0  0  0  0
 19 22  1  0  0  0  0
  1 23  1  0  0  0  0
 23 24  1  0  0  0  0
 23 25  1  0  0  0  0
 23 26  1  0  0  0  0
M  END
> <VM2 Rank>
106

> <Conf_Id>
1847

> <Probability>
0.06

> <Sum Probability>
98.60

> <Delta G>
2.818

> <G>
78.284

> <E>
45.928

> <-TS>
32.355

> <U+W>
24.466

> <U>
74.362

> <W>
-49.896

> <W(PB)>
-52.135

> <W(SA)>
2.240

> <Valence>
3.850

> <Coulomb>
70.385

> <VdW>
0.127

> <VdW6>
-7.956

> <VdW12>
8.083

> <Bond>
0.231

> <Angle>
1.284

> <Pdih>
2.335

> <Idih>
0.000

> <Tether>
0.000

$$$$
VeraChem MOL file


 26 25  0  0  0  0  0  0  0  0999 V2000     
   19.5321   18.8523   25.9063 N   0  3  0  0  0  0  0  0  0  0  0  0
   20.2376   18.4851   26.5638 H   0  0  0  0  0  0  0  0  0  0  0  0
   18.8994   18.0606   25.7124 H   0  0  0  0  0  0  0  0  0  0  0  0
   20.1999   19.3143   24.6270 C   0  0  0  0  0  0  0  0  0  0  0  0
   20.8689   20.1409   24.8792 H   0  0  0  0  0  0  0  0  0  0  0  0
   19.4202   19.6966   23.9667 H   0  0  0  0  0  0  0  0  0  0  0  0
   20.9997   18.2004   23.9222 C   0  0  0  0  0  0  0  0  0  0  0  0
   21.7697   17.8417   24.6182 H   0  0  0  0  0  0  0  0  0  0  0  0
   20.3508   17.3409   23.7077 H   0  0  0  0  0  0  0  0  0  0  0  0
   21.6947   18.6805   22.6229 C   0  0  0  0  0  0  0  0  0  0  0  0
   22.5855   18.0577   22.4619 H   0  0  0  0  0  0  0  0  0  0  0  0
   22.0690   19.7055   22.7530 H   0  0  0  0  0  0  0  0  0  0  0  0
   20.8236   18.5896   21.3427 C   0  0  0  0  0  0  0  0  0  0  0  0
   21.4436   18.8886   20.4861 H   0  0  0  0  0  0  0  0  0  0  0  0
   20.5438   17.5421   21.1641 H   0  0  0  0  0  0  0  0  0  0  0  0
   19.5484   19.4638   21.3669 C   0  0  0  0  0  0  0  0  0  0  0  0
   19.8051   20.4918   21.6585 H   0  0  0  0  0  0  0  0  0  0  0  0
   18.8448   19.0783   22.1160 H   0  0  0  0  0  0  0  0  0  0  0  0
   18.8444   19.4823   19.9931 C   0  0  0  0  0  0  0  0  0  0  0  0
   17.9363   20.0978   20.0312 H   0  0  0  0  0  0  0  0  0  0  0  0
   18.5523   18.4697   19.6857 H   0  0  0  0  0  0  0  0  0  0  0  0
   19.5006   19.8990   19.2179 H   0  0  0  0  0  0  0  0  0  0  0  0
   18.7651   20.0068   26.5360 C   0  0  0  0  0  0  0  0  0  0  0  0
   19.4600   20.8185   26.7625 H   0  0  0  0  0  0  0  0  0  0  0  0
   18.0032   20.3563   25.8358 H   0  0  0  0  0  0  0  0  0  0  0  0
   18.2894   19.6610   27.4565 H   0  0  0  0  0  0  0  0  0  0  0  0
  1  2  1  0  0  0  0
  1  3  1  0  0  0  0
  1  4  1  0  0  0  0
  4  5  1  0  0  0  0
  4  6  1  0  0  0  0
  4  7  1  0  0  0  0
  7  8  1  0  0  0  0
  7  9  1  0  0  0  0
  7 10  1  0  0  0  0
 10 11  1  0  0  0  0
 10 12  1  0  0  0  0
 10 13  1  0  0  0  0
 13 14  1  0  0  0  0
 13 15  1  0  0  0  0
 13 16  1  0  0  0  0
 16 17  1  0  0  0  0
 16 18  1  0  0  0  0
 16 19  1  0  0  0  0
 19 20  1  0  0  0  0
 19 21  1  0  0  0  0
 19 22  1  0  0  0  0
  1 23  1  0  0  0  0
 23 24  1  0  0  0  0
 23 25  1  0  0  0  0
 23 26  1  0  0  0  0
M  END
> <VM2 Rank>
107

> <Conf_Id>
1369

> <Probability>
0.05

> <Sum Probability>
98.65

> <Delta G>
2.918

> <G>
78.384

> <E>
45.898

> <-TS>
32.486

> <U+W>
24.436

> <U>
73.891

> <W>
-49.455

> <W(PB)>
-51.734

> <W(SA)>
2.278

> <Valence>
4.111

> <Coulomb>
69.672

> <VdW>
0.108

> <VdW6>
-6.998

> <VdW12>
7.106

> <Bond>
0.196

> <Angle>
1.122

> <Pdih>
2.794

> <Idih>
0.000

> <Tether>
0.000

$$$$
VeraChem MOL file


 26 25  0  0  0  0  0  0  0  0999 V2000     
   19.7574   18.6752   26.3424 N   0  3  0  0  0  0  0  0  0  0  0  0
   19.9975   17.6719   26.3454 H   0  0  0  0  0  0  0  0  0  0  0  0
   19.2211   18.8191   27.2127 H   0  0  0  0  0  0  0  0  0  0  0  0
   18.8688   18.9973   25.1486 C   0  0  0  0  0  0  0  0  0  0  0  0
   18.6296   20.0634   25.1704 H   0  0  0  0  0  0  0  0  0  0  0  0
   17.9384   18.4452   25.3046 H   0  0  0  0  0  0  0  0  0  0  0  0
   19.4344   18.6062   23.7649 C   0  0  0  0  0  0  0  0  0  0  0  0
   20.0821   17.7249   23.8603 H   0  0  0  0  0  0  0  0  0  0  0  0
   18.5881   18.3029   23.1362 H   0  0  0  0  0  0  0  0  0  0  0  0
   20.1886   19.7661   23.0659 C   0  0  0  0  0  0  0  0  0  0  0  0
   20.9797   20.1457   23.7231 H   0  0  0  0  0  0  0  0  0  0  0  0
   19.5000   20.6068   22.9037 H   0  0  0  0  0  0  0  0  0  0  0  0
   20.8353   19.3599   21.7185 C   0  0  0  0  0  0  0  0  0  0  0  0
   21.4379   20.2035   21.3541 H   0  0  0  0  0  0  0  0  0  0  0  0
   21.5362   18.5297   21.8822 H   0  0  0  0  0  0  0  0  0  0  0  0
   19.8091   18.9689   20.6284 C   0  0  0  0  0  0  0  0  0  0  0  0
   19.0747   19.7768   20.5028 H   0  0  0  0  0  0  0  0  0  0  0  0
   19.2503   18.0751   20.9358 H   0  0  0  0  0  0  0  0  0  0  0  0
   20.4958   18.6876   19.2748 C   0  0  0  0  0  0  0  0  0  0  0  0
   21.0327   19.5738   18.9119 H   0  0  0  0  0  0  0  0  0  0  0  0
   19.7547   18.4088   18.5145 H   0  0  0  0  0  0  0  0  0  0  0  0
   21.2158   17.8634   19.3613 H   0  0  0  0  0  0  0  0  0  0  0  0
   21.0186   19.5288   26.3736 C   0  0  0  0  0  0  0  0  0  0  0  0
   20.7394   20.5843   26.3472 H   0  0  0  0  0  0  0  0  0  0  0  0
   21.5708   19.3156   27.2916 H   0  0  0  0  0  0  0  0  0  0  0  0
   21.6395   19.2840   25.5099 H   0  0  0  0  0  0  0  0  0  0  0  0
  1  2  1  0  0  0  0
  1  3  1  0  0  0  0
  1  4  1  0  0  0  0
  4  5  1  0  0  0  0
  4  6  1  0  0  0  0
  4  7  1  0  0  0  0
  7  8  1  0  0  0  0
  7  9  1  0  0  0  0
  7 10  1  0  0  0  0
 10 11  1  0  0  0  0
 10 12  1  0  0  0  0
 10 13  1  0  0  0  0
 13 14  1  0  0  0  0
 13 15  1  0  0  0  0
 13 16  1  0  0  0  0
 16 17  1  0  0  0  0
 16 18  1  0  0  0  0
 16 19  1  0  0  0  0
 19 20  1  0  0  0  0
 19 21  1  0  0  0  0
 19 22  1  0  0  0  0
  1 23  1  0  0  0  0
 23 24  1  0  0  0  0
 23 25  1  0  0  0  0
 23 26  1  0  0  0  0
M  END
> <VM2 Rank>
108

> <Conf_Id>
965

> <Probability>
0.05

> <Sum Probability>
98.70

> <Delta G>
2.925

> <G>
78.391

> <E>
45.921

> <-TS>
32.469

> <U+W>
24.459

> <U>
73.840

> <W>
-49.381

> <W(PB)>
-51.643

> <W(SA)>
2.262

> <Valence>
4.494

> <Coulomb>
68.796

> <VdW>
0.550

> <VdW6>
-7.478

> <VdW12>
8.028

> <Bond>
0.238

> <Angle>
1.174

> <Pdih>
3.082

> <Idih>
0.000

> <Tether>
0.000

$$$$
VeraChem MOL file


 26 25  0  0  0  0  0  0  0  0999 V2000     
   20.0004   18.6914   26.2355 N   0  3  0  0  0  0  0  0  0  0  0  0
   20.4368   18.4800   27.1469 H   0  0  0  0  0  0  0  0  0  0  0  0
   19.5224   17.8199   25.9607 H   0  0  0  0  0  0  0  0  0  0  0  0
   21.0838   19.0404   25.2278 C   0  0  0  0  0  0  0  0  0  0  0  0
   22.0009   18.5552   25.5716 H   0  0  0  0  0  0  0  0  0  0  0  0
   21.2472   20.1205   25.2611 H   0  0  0  0  0  0  0  0  0  0  0  0
   20.8161   18.5816   23.7768 C   0  0  0  0  0  0  0  0  0  0  0  0
   21.7132   18.8111   23.1895 H   0  0  0  0  0  0  0  0  0  0  0  0
   20.7030   17.4897   23.7559 H   0  0  0  0  0  0  0  0  0  0  0  0
   19.5790   19.2483   23.1246 C   0  0  0  0  0  0  0  0  0  0  0  0
   19.6661   20.3416   23.1904 H   0  0  0  0  0  0  0  0  0  0  0  0
   18.6813   18.9708   23.6917 H   0  0  0  0  0  0  0  0  0  0  0  0
   19.3546   18.8318   21.6496 C   0  0  0  0  0  0  0  0  0  0  0  0
   19.2834   17.7375   21.5816 H   0  0  0  0  0  0  0  0  0  0  0  0
   18.3811   19.2236   21.3236 H   0  0  0  0  0  0  0  0  0  0  0  0
   20.4482   19.3464   20.6831 C   0  0  0  0  0  0  0  0  0  0  0  0
   21.4201   18.9030   20.9361 H   0  0  0  0  0  0  0  0  0  0  0  0
   20.5567   20.4347   20.7908 H   0  0  0  0  0  0  0  0  0  0  0  0
   20.1136   19.0094   19.2142 C   0  0  0  0  0  0  0  0  0  0  0  0
   20.0276   17.9247   19.0679 H   0  0  0  0  0  0  0  0  0  0  0  0
   20.9000   19.3783   18.5430 H   0  0  0  0  0  0  0  0  0  0  0  0
   19.1661   19.4718   18.9083 H   0  0  0  0  0  0  0  0  0  0  0  0
   19.0125   19.8407   26.4053 C   0  0  0  0  0  0  0  0  0  0  0  0
   18.5276   20.0537   25.4518 H   0  0  0  0  0  0  0  0  0  0  0  0
   18.2601   19.5579   27.1450 H   0  0  0  0  0  0  0  0  0  0  0  0
   19.5510   20.7262   26.7498 H   0  0  0  0  0  0  0  0  0  0  0  0
  1  2  1  0  0  0  0
  1  3  1  0  0  0  0
  1  4  1  0  0  0  0
  4  5  1  0  0  0  0
  4  6  1  0  0  0  0
  4  7  1  0  0  0  0
  7  8  1  0  0  0  0
  7  9  1  0  0  0  0
  7 10  1  0  0  0  0
 10 11  1  0  0  0  0
 10 12  1  0  0  0  0
 10 13  1  0  0  0  0
 13 14  1  0  0  0  0
 13 15  1  0  0  0  0
 13 16  1  0  0  0  0
 16 17  1  0  0  0  0
 16 18  1  0  0  0  0
 16 19  1  0  0  0  0
 19 20  1  0  0  0  0
 19 21  1  0  0  0  0
 19 22  1  0  0  0  0
  1 23  1  0  0  0  0
 23 24  1  0  0  0  0
 23 25  1  0  0  0  0
 23 26  1  0  0  0  0
M  END
> <VM2 Rank>
109

> <Conf_Id>
1611

> <Probability>
0.05

> <Sum Probability>
98.75

> <Delta G>
2.933

> <G>
78.399

> <E>
45.854

> <-TS>
32.545

> <U+W>
24.392

> <U>
73.757

> <W>
-49.366

> <W(PB)>
-51.645

> <W(SA)>
2.279

> <Valence>
4.423

> <Coulomb>
68.887

> <VdW>
0.447

> <VdW6>
-7.490

> <VdW12>
7.937

> <Bond>
0.232

> <Angle>
1.146

> <Pdih>
3.045

> <Idih>
0.000

> <Tether>
0.000

$$$$
VeraChem MOL file


 26 25  0  0  0  0  0  0  0  0999 V2000     
   20.2044   18.7207   26.3582 N   0  3  0  0  0  0  0  0  0  0  0  0
   20.6384   18.9634   27.2629 H   0  0  0  0  0  0  0  0  0  0  0  0
   20.1719   17.6896   26.3514 H   0  0  0  0  0  0  0  0  0  0  0  0
   21.0912   19.2240   25.2273 C   0  0  0  0  0  0  0  0  0  0  0  0
   22.1005   18.8698   25.4521 H   0  0  0  0  0  0  0  0  0  0  0  0
   21.1083   20.3163   25.2582 H   0  0  0  0  0  0  0  0  0  0  0  0
   20.7146   18.7369   23.8102 C   0  0  0  0  0  0  0  0  0  0  0  0
   21.6466   18.6152   23.2445 H   0  0  0  0  0  0  0  0  0  0  0  0
   20.2530   17.7422   23.8662 H   0  0  0  0  0  0  0  0  0  0  0  0
   19.7926   19.7256   23.0519 C   0  0  0  0  0  0  0  0  0  0  0  0
   20.3069   20.6892   22.9323 H   0  0  0  0  0  0  0  0  0  0  0  0
   18.8970   19.9330   23.6493 H   0  0  0  0  0  0  0  0  0  0  0  0
   19.3371   19.2070   21.6654 C   0  0  0  0  0  0  0  0  0  0  0  0
   18.8084   18.2512   21.7855 H   0  0  0  0  0  0  0  0  0  0  0  0
   18.6036   19.9141   21.2538 H   0  0  0  0  0  0  0  0  0  0  0  0
   20.4948   19.0390   20.6526 C   0  0  0  0  0  0  0  0  0  0  0  0
   21.1996   18.2742   21.0048 H   0  0  0  0  0  0  0  0  0  0  0  0
   21.0580   19.9794   20.5730 H   0  0  0  0  0  0  0  0  0  0  0  0
   19.9755   18.6345   19.2563 C   0  0  0  0  0  0  0  0  0  0  0  0
   19.4325   17.6813   19.2981 H   0  0  0  0  0  0  0  0  0  0  0  0
   20.8090   18.5166   18.5518 H   0  0  0  0  0  0  0  0  0  0  0  0
   19.2974   19.3966   18.8505 H   0  0  0  0  0  0  0  0  0  0  0  0
   18.7980   19.3023   26.2950 C   0  0  0  0  0  0  0  0  0  0  0  0
   18.8597   20.3926   26.2808 H   0  0  0  0  0  0  0  0  0  0  0  0
   18.3011   18.9436   25.3917 H   0  0  0  0  0  0  0  0  0  0  0  0
   18.2373   18.9755   27.1736 H   0  0  0  0  0  0  0  0  0  0  0  0
  1  2  1  0  0  0  0
  1  3  1  0  0  0  0
  1  4  1  0  0  0  0
  4  5  1  0  0  0  0
  4  6  1  0  0  0  0
  4  7  1  0  0  0  0
  7  8  1  0  0  0  0
  7  9  1  0  0  0  0
  7 10  1  0  0  0  0
 10 11  1  0  0  0  0
 10 12  1  0  0  0  0
 10 13  1  0  0  0  0
 13 14  1  0  0  0  0
 13 15  1  0  0  0  0
 13 16  1  0  0  0  0
 16 17  1  0  0  0  0
 16 18  1  0  0  0  0
 16 19  1  0  0  0  0
 19 20  1  0  0  0  0
 19 21  1  0  0  0  0
 19 22  1  0  0  0  0
  1 23  1  0  0  0  0
 23 24  1  0  0  0  0
 23 25  1  0  0  0  0
 23 26  1  0  0  0  0
M  END
> <VM2 Rank>
110

> <Conf_Id>
1046

> <Probability>
0.05

> <Sum Probability>
98.80

> <Delta G>
2.947

> <G>
78.413

> <E>
45.943

> <-TS>
32.469

> <U+W>
24.482

> <U>
73.840

> <W>
-49.359

> <W(PB)>
-51.615

> <W(SA)>
2.256

> <Valence>
4.495

> <Coulomb>
68.796

> <VdW>
0.550

> <VdW6>
-7.478

> <VdW12>
8.028

> <Bond>
0.238

> <Angle>
1.175

> <Pdih>
3.082

> <Idih>
0.000

> <Tether>
0.000

$$$$
VeraChem MOL file


 26 25  0  0  0  0  0  0  0  0999 V2000     
   20.4196   18.9438   25.9378 N   0  3  0  0  0  0  0  0  0  0  0  0
   21.2121   18.2987   25.7945 H   0  0  0  0  0  0  0  0  0  0  0  0
   19.7592   18.4361   26.5469 H   0  0  0  0  0  0  0  0  0  0  0  0
   19.7631   19.2693   24.6115 C   0  0  0  0  0  0  0  0  0  0  0  0
   20.4930   19.8070   24.0047 H   0  0  0  0  0  0  0  0  0  0  0  0
   18.9239   19.9406   24.8102 H   0  0  0  0  0  0  0  0  0  0  0  0
   19.2582   18.0210   23.8605 C   0  0  0  0  0  0  0  0  0  0  0  0
   20.0819   17.3131   23.6982 H   0  0  0  0  0  0  0  0  0  0  0  0
   18.5306   17.5079   24.5035 H   0  0  0  0  0  0  0  0  0  0  0  0
   18.5727   18.3588   22.5124 C   0  0  0  0  0  0  0  0  0  0  0  0
   17.9892   19.2851   22.6086 H   0  0  0  0  0  0  0  0  0  0  0  0
   17.8408   17.5687   22.2939 H   0  0  0  0  0  0  0  0  0  0  0  0
   19.5314   18.4564   21.2969 C   0  0  0  0  0  0  0  0  0  0  0  0
   20.0305   17.4892   21.1460 H   0  0  0  0  0  0  0  0  0  0  0  0
   18.9250   18.6291   20.3969 H   0  0  0  0  0  0  0  0  0  0  0  0
   20.5969   19.5719   21.4039 C   0  0  0  0  0  0  0  0  0  0  0  0
   21.3101   19.3324   22.2033 H   0  0  0  0  0  0  0  0  0  0  0  0
   20.1164   20.5239   21.6695 H   0  0  0  0  0  0  0  0  0  0  0  0
   21.3767   19.7432   20.0828 C   0  0  0  0  0  0  0  0  0  0  0  0
   22.1354   20.5306   20.1798 H   0  0  0  0  0  0  0  0  0  0  0  0
   20.7053   20.0231   19.2605 H   0  0  0  0  0  0  0  0  0  0  0  0
   21.8898   18.8136   19.8039 H   0  0  0  0  0  0  0  0  0  0  0  0
   20.8896   20.2257   26.6112 C   0  0  0  0  0  0  0  0  0  0  0  0
   20.0300   20.8775   26.7823 H   0  0  0  0  0  0  0  0  0  0  0  0
   21.3599   19.9775   27.5653 H   0  0  0  0  0  0  0  0  0  0  0  0
   21.6117   20.7278   25.9636 H   0  0  0  0  0  0  0  0  0  0  0  0
  1  2  1  0  0  0  0
  1  3  1  0  0  0  0
  1  4  1  0  0  0  0
  4  5  1  0  0  0  0
  4  6  1  0  0  0  0
  4  7  1  0  0  0  0
  7  8  1  0  0  0  0
  7  9  1  0  0  0  0
  7 10  1  0  0  0  0
 10 11  1  0  0  0  0
 10 12  1  0  0  0  0
 10 13  1  0  0  0  0
 13 14  1  0  0  0  0
 13 15  1  0  0  0  0
 13 16  1  0  0  0  0
 16 17  1  0  0  0  0
 16 18  1  0  0  0  0
 16 19  1  0  0  0  0
 19 20  1  0  0  0  0
 19 21  1  0  0  0  0
 19 22  1  0  0  0  0
  1 23  1  0  0  0  0
 23 24  1  0  0  0  0
 23 25  1  0  0  0  0
 23 26  1  0  0  0  0
M  END
> <VM2 Rank>
111

> <Conf_Id>
1368

> <Probability>
0.05

> <Sum Probability>
98.84

> <Delta G>
2.976

> <G>
78.442

> <E>
45.956

> <-TS>
32.486

> <U+W>
24.494

> <U>
73.891

> <W>
-49.397

> <W(PB)>
-51.698

> <W(SA)>
2.301

> <Valence>
4.111

> <Coulomb>
69.672

> <VdW>
0.108

> <VdW6>
-6.998

> <VdW12>
7.106

> <Bond>
0.196

> <Angle>
1.122

> <Pdih>
2.794

> <Idih>
0.000

> <Tether>
0.000

$$$$
VeraChem MOL file


 26 25  0  0  0  0  0  0  0  0999 V2000     
   20.0523   19.6994   26.0023 N   0  3  0  0  0  0  0  0  0  0  0  0
   20.3263   20.6220   26.3759 H   0  0  0  0  0  0  0  0  0  0  0  0
   20.4395   19.0157   26.6709 H   0  0  0  0  0  0  0  0  0  0  0  0
   20.6721   19.5014   24.6295 C   0  0  0  0  0  0  0  0  0  0  0  0
   21.7298   19.7645   24.7102 H   0  0  0  0  0  0  0  0  0  0  0  0
   20.2009   20.2113   23.9481 H   0  0  0  0  0  0  0  0  0  0  0  0
   20.5569   18.0631   24.0783 C   0  0  0  0  0  0  0  0  0  0  0  0
   21.0315   17.3843   24.7991 H   0  0  0  0  0  0  0  0  0  0  0  0
   19.5056   17.7556   24.0097 H   0  0  0  0  0  0  0  0  0  0  0  0
   21.2482   17.8855   22.7029 C   0  0  0  0  0  0  0  0  0  0  0  0
   21.5684   16.8381   22.6135 H   0  0  0  0  0  0  0  0  0  0  0  0
   22.1704   18.4819   22.6651 H   0  0  0  0  0  0  0  0  0  0  0  0
   20.3543   18.2076   21.4769 C   0  0  0  0  0  0  0  0  0  0  0  0
   20.9297   17.9879   20.5669 H   0  0  0  0  0  0  0  0  0  0  0  0
   19.4926   17.5260   21.4638 H   0  0  0  0  0  0  0  0  0  0  0  0
   19.8521   19.6687   21.4119 C   0  0  0  0  0  0  0  0  0  0  0  0
   20.6969   20.3603   21.5368 H   0  0  0  0  0  0  0  0  0  0  0  0
   19.1500   19.8597   22.2340 H   0  0  0  0  0  0  0  0  0  0  0  0
   19.1396   19.9672   20.0755 C   0  0  0  0  0  0  0  0  0  0  0  0
   19.8191   19.8264   19.2248 H   0  0  0  0  0  0  0  0  0  0  0  0
   18.7806   21.0042   20.0508 H   0  0  0  0  0  0  0  0  0  0  0  0
   18.2735   19.3075   19.9340 H   0  0  0  0  0  0  0  0  0  0  0  0
   18.5325   19.5971   25.9397 C   0  0  0  0  0  0  0  0  0  0  0  0
   18.2503   18.5972   25.6045 H   0  0  0  0  0  0  0  0  0  0  0  0
   18.1212   19.7800   26.9350 H   0  0  0  0  0  0  0  0  0  0  0  0
   18.1511   20.3443   25.2404 H   0  0  0  0  0  0  0  0  0  0  0  0
  1  2  1  0  0  0  0
  1  3  1  0  0  0  0
  1  4  1  0  0  0  0
  4  5  1  0  0  0  0
  4  6  1  0  0  0  0
  4  7  1  0  0  0  0
  7  8  1  0  0  0  0
  7  9  1  0  0  0  0
  7 10  1  0  0  0  0
 10 11  1  0  0  0  0
 10 12  1  0  0  0  0
 10 13  1  0  0  0  0
 13 14  1  0  0  0  0
 13 15  1  0  0  0  0
 13 16  1  0  0  0  0
 16 17  1  0  0  0  0
 16 18  1  0  0  0  0
 16 19  1  0  0  0  0
 19 20  1  0  0  0  0
 19 21  1  0  0  0  0
 19 22  1  0  0  0  0
  1 23  1  0  0  0  0
 23 24  1  0  0  0  0
 23 25  1  0  0  0  0
 23 26  1  0  0  0  0
M  END
> <VM2 Rank>
112

> <Conf_Id>
1075

> <Probability>
0.04

> <Sum Probability>
98.88

> <Delta G>
3.088

> <G>
78.554

> <E>
45.906

> <-TS>
32.648

> <U+W>
24.444

> <U>
74.229

> <W>
-49.785

> <W(PB)>
-52.042

> <W(SA)>
2.257

> <Valence>
4.376

> <Coulomb>
69.549

> <VdW>
0.304

> <VdW6>
-7.808

> <VdW12>
8.111

> <Bond>
0.233

> <Angle>
1.219

> <Pdih>
2.924

> <Idih>
0.000

> <Tether>
0.000

$$$$
VeraChem MOL file


 26 25  0  0  0  0  0  0  0  0999 V2000     
   19.5023   18.5158   25.2775 N   0  3  0  0  0  0  0  0  0  0  0  0
   19.9325   17.6154   25.5402 H   0  0  0  0  0  0  0  0  0  0  0  0
   19.0802   18.3599   24.3510 H   0  0  0  0  0  0  0  0  0  0  0  0
   20.5649   19.5950   25.1934 C   0  0  0  0  0  0  0  0  0  0  0  0
   21.0099   19.6793   26.1881 H   0  0  0  0  0  0  0  0  0  0  0  0
   20.0772   20.5443   24.9583 H   0  0  0  0  0  0  0  0  0  0  0  0
   21.6803   19.3113   24.1653 C   0  0  0  0  0  0  0  0  0  0  0  0
   22.5654   19.8887   24.4637 H   0  0  0  0  0  0  0  0  0  0  0  0
   21.9789   18.2557   24.2155 H   0  0  0  0  0  0  0  0  0  0  0  0
   21.3257   19.7041   22.7081 C   0  0  0  0  0  0  0  0  0  0  0  0
   22.2178   19.5484   22.0856 H   0  0  0  0  0  0  0  0  0  0  0  0
   21.1060   20.7799   22.6633 H   0  0  0  0  0  0  0  0  0  0  0  0
   20.1442   18.9116   22.0995 C   0  0  0  0  0  0  0  0  0  0  0  0
   20.3084   17.8344   22.2413 H   0  0  0  0  0  0  0  0  0  0  0  0
   19.2136   19.1744   22.6180 H   0  0  0  0  0  0  0  0  0  0  0  0
   19.9703   19.2088   20.5934 C   0  0  0  0  0  0  0  0  0  0  0  0
   20.8904   18.9449   20.0533 H   0  0  0  0  0  0  0  0  0  0  0  0
   19.8131   20.2863   20.4433 H   0  0  0  0  0  0  0  0  0  0  0  0
   18.7824   18.4291   19.9900 C   0  0  0  0  0  0  0  0  0  0  0  0
   18.9265   17.3459   20.0953 H   0  0  0  0  0  0  0  0  0  0  0  0
   18.6761   18.6518   18.9203 H   0  0  0  0  0  0  0  0  0  0  0  0
   17.8403   18.6985   20.4849 H   0  0  0  0  0  0  0  0  0  0  0  0
   18.4379   18.9143   26.2900 C   0  0  0  0  0  0  0  0  0  0  0  0
   17.6804   18.1289   26.3417 H   0  0  0  0  0  0  0  0  0  0  0  0
   18.9041   19.0420   27.2694 H   0  0  0  0  0  0  0  0  0  0  0  0
   17.9758   19.8525   25.9750 H   0  0  0  0  0  0  0  0  0  0  0  0
  1  2  1  0  0  0  0
  1  3  1  0  0  0  0
  1  4  1  0  0  0  0
  4  5  1  0  0  0  0
  4  6  1  0  0  0  0
  4  7  1  0  0  0  0
  7  8  1  0  0  0  0
  7  9  1  0  0  0  0
  7 10  1  0  0  0  0
 10 11  1  0  0  0  0
 10 12  1  0  0  0  0
 10 13  1  0  0  0  0
 13 14  1  0  0  0  0
 13 15  1  0  0  0  0
 13 16  1  0  0  0  0
 16 17  1  0  0  0  0
 16 18  1  0  0  0  0
 16 19  1  0  0  0  0
 19 20  1  0  0  0  0
 19 21  1  0  0  0  0
 19 22  1  0  0  0  0
  1 23  1  0  0  0  0
 23 24  1  0  0  0  0
 23 25  1  0  0  0  0
 23 26  1  0  0  0  0
M  END
> <VM2 Rank>
113

> <Conf_Id>
1052

> <Probability>
0.04

> <Sum Probability>
98.92

> <Delta G>
3.117

> <G>
78.583

> <E>
46.237

> <-TS>
32.346

> <U+W>
24.775

> <U>
73.983

> <W>
-49.208

> <W(PB)>
-51.488

> <W(SA)>
2.280

> <Valence>
3.347

> <Coulomb>
70.654

> <VdW>
-0.018

> <VdW6>
-6.981

> <VdW12>
6.963

> <Bond>
0.176

> <Angle>
0.935

> <Pdih>
2.235

> <Idih>
0.000

> <Tether>
0.000

$$$$
VeraChem MOL file


 26 25  0  0  0  0  0  0  0  0999 V2000     
   19.6180   19.8461   25.9144 N   0  3  0  0  0  0  0  0  0  0  0  0
   19.0413   20.6923   26.0456 H   0  0  0  0  0  0  0  0  0  0  0  0
   20.4489   19.9956   26.5074 H   0  0  0  0  0  0  0  0  0  0  0  0
   20.0275   19.7296   24.4559 C   0  0  0  0  0  0  0  0  0  0  0  0
   20.4292   20.6995   24.1516 H   0  0  0  0  0  0  0  0  0  0  0  0
   19.1248   19.5334   23.8733 H   0  0  0  0  0  0  0  0  0  0  0  0
   21.0799   18.6386   24.1730 C   0  0  0  0  0  0  0  0  0  0  0  0
   21.9240   18.7754   24.8618 H   0  0  0  0  0  0  0  0  0  0  0  0
   20.6572   17.6499   24.3933 H   0  0  0  0  0  0  0  0  0  0  0  0
   21.6212   18.6536   22.7210 C   0  0  0  0  0  0  0  0  0  0  0  0
   22.4166   17.8980   22.6578 H   0  0  0  0  0  0  0  0  0  0  0  0
   22.1081   19.6151   22.5071 H   0  0  0  0  0  0  0  0  0  0  0  0
   20.5650   18.3309   21.6314 C   0  0  0  0  0  0  0  0  0  0  0  0
   21.0782   17.8446   20.7901 H   0  0  0  0  0  0  0  0  0  0  0  0
   19.8437   17.5946   22.0117 H   0  0  0  0  0  0  0  0  0  0  0  0
   19.8255   19.5764   21.0847 C   0  0  0  0  0  0  0  0  0  0  0  0
   20.5564   20.2954   20.6889 H   0  0  0  0  0  0  0  0  0  0  0  0
   19.2825   20.0912   21.8856 H   0  0  0  0  0  0  0  0  0  0  0  0
   18.8286   19.1998   19.9679 C   0  0  0  0  0  0  0  0  0  0  0  0
   19.3424   18.7220   19.1236 H   0  0  0  0  0  0  0  0  0  0  0  0
   18.3165   20.0933   19.5878 H   0  0  0  0  0  0  0  0  0  0  0  0
   18.0634   18.5058   20.3395 H   0  0  0  0  0  0  0  0  0  0  0  0
   18.8422   18.6149   26.3687 C   0  0  0  0  0  0  0  0  0  0  0  0
   19.4815   17.7337   26.2859 H   0  0  0  0  0  0  0  0  0  0  0  0
   18.5356   18.7496   27.4084 H   0  0  0  0  0  0  0  0  0  0  0  0
   17.9596   18.4936   25.7369 H   0  0  0  0  0  0  0  0  0  0  0  0
  1  2  1  0  0  0  0
  1  3  1  0  0  0  0
  1  4  1  0  0  0  0
  4  5  1  0  0  0  0
  4  6  1  0  0  0  0
  4  7  1  0  0  0  0
  7  8  1  0  0  0  0
  7  9  1  0  0  0  0
  7 10  1  0  0  0  0
 10 11  1  0  0  0  0
 10 12  1  0  0  0  0
 10 13  1  0  0  0  0
 13 14  1  0  0  0  0
 13 15  1  0  0  0  0
 13 16  1  0  0  0  0
 16 17  1  0  0  0  0
 16 18  1  0  0  0  0
 16 19  1  0  0  0  0
 19 20  1  0  0  0  0
 19 21  1  0  0  0  0
 19 22  1  0  0  0  0
  1 23  1  0  0  0  0
 23 24  1  0  0  0  0
 23 25  1  0  0  0  0
 23 26  1  0  0  0  0
M  END
> <VM2 Rank>
114

> <Conf_Id>
1479

> <Probability>
0.04

> <Sum Probability>
98.95

> <Delta G>
3.121

> <G>
78.587

> <E>
46.170

> <-TS>
32.417

> <U+W>
24.709

> <U>
74.305

> <W>
-49.597

> <W(PB)>
-51.865

> <W(SA)>
2.269

> <Valence>
4.513

> <Coulomb>
69.361

> <VdW>
0.431

> <VdW6>
-7.509

> <VdW12>
7.941

> <Bond>
0.240

> <Angle>
1.205

> <Pdih>
3.068

> <Idih>
0.000

> <Tether>
0.000

$$$$
VeraChem MOL file


 26 25  0  0  0  0  0  0  0  0999 V2000     
   20.1324   19.8992   25.9326 N   0  3  0  0  0  0  0  0  0  0  0  0
   19.2490   19.8716   26.4649 H   0  0  0  0  0  0  0  0  0  0  0  0
   20.5135   20.8443   26.0979 H   0  0  0  0  0  0  0  0  0  0  0  0
   19.8585   19.7122   24.4499 C   0  0  0  0  0  0  0  0  0  0  0  0
   20.8208   19.7087   23.9335 H   0  0  0  0  0  0  0  0  0  0  0  0
   19.2896   20.5818   24.1113 H   0  0  0  0  0  0  0  0  0  0  0  0
   19.0735   18.4313   24.1019 C   0  0  0  0  0  0  0  0  0  0  0  0
   19.6728   17.5482   24.3583 H   0  0  0  0  0  0  0  0  0  0  0  0
   18.1732   18.3878   24.7290 H   0  0  0  0  0  0  0  0  0  0  0  0
   18.6434   18.3461   22.6156 C   0  0  0  0  0  0  0  0  0  0  0  0
   17.9867   19.1896   22.3613 H   0  0  0  0  0  0  0  0  0  0  0  0
   18.0252   17.4446   22.5024 H   0  0  0  0  0  0  0  0  0  0  0  0
   19.8166   18.2536   21.6048 C   0  0  0  0  0  0  0  0  0  0  0  0
   20.6446   17.6770   22.0397 H   0  0  0  0  0  0  0  0  0  0  0  0
   19.4734   17.6792   20.7331 H   0  0  0  0  0  0  0  0  0  0  0  0
   20.3230   19.6278   21.1024 C   0  0  0  0  0  0  0  0  0  0  0  0
   20.6924   20.2365   21.9357 H   0  0  0  0  0  0  0  0  0  0  0  0
   19.4903   20.1856   20.6515 H   0  0  0  0  0  0  0  0  0  0  0  0
   21.4512   19.4707   20.0606 C   0  0  0  0  0  0  0  0  0  0  0  0
   21.7957   20.4525   19.7110 H   0  0  0  0  0  0  0  0  0  0  0  0
   21.1059   18.9044   19.1859 H   0  0  0  0  0  0  0  0  0  0  0  0
   22.3140   18.9444   20.4896 H   0  0  0  0  0  0  0  0  0  0  0  0
   21.1095   18.8491   26.4491 C   0  0  0  0  0  0  0  0  0  0  0  0
   22.0402   18.9152   25.8816 H   0  0  0  0  0  0  0  0  0  0  0  0
   21.3085   19.0359   27.5068 H   0  0  0  0  0  0  0  0  0  0  0  0
   20.6709   17.8566   26.3281 H   0  0  0  0  0  0  0  0  0  0  0  0
  1  2  1  0  0  0  0
  1  3  1  0  0  0  0
  1  4  1  0  0  0  0
  4  5  1  0  0  0  0
  4  6  1  0  0  0  0
  4  7  1  0  0  0  0
  7  8  1  0  0  0  0
  7  9  1  0  0  0  0
  7 10  1  0  0  0  0
 10 11  1  0  0  0  0
 10 12  1  0  0  0  0
 10 13  1  0  0  0  0
 13 14  1  0  0  0  0
 13 15  1  0  0  0  0
 13 16  1  0  0  0  0
 16 17  1  0  0  0  0
 16 18  1  0  0  0  0
 16 19  1  0  0  0  0
 19 20  1  0  0  0  0
 19 21  1  0  0  0  0
 19 22  1  0  0  0  0
  1 23  1  0  0  0  0
 23 24  1  0  0  0  0
 23 25  1  0  0  0  0
 23 26  1  0  0  0  0
M  END
> <VM2 Rank>
115

> <Conf_Id>
555

> <Probability>
0.04

> <Sum Probability>
98.99

> <Delta G>
3.134

> <G>
78.600

> <E>
46.184

> <-TS>
32.416

> <U+W>
24.722

> <U>
74.305

> <W>
-49.584

> <W(PB)>
-51.861

> <W(SA)>
2.278

> <Valence>
4.513

> <Coulomb>
69.361

> <VdW>
0.431

> <VdW6>
-7.509

> <VdW12>
7.940

> <Bond>
0.240

> <Angle>
1.206

> <Pdih>
3.067

> <Idih>
0.000

> <Tether>
0.000

$$$$
VeraChem MOL file


 26 25  0  0  0  0  0  0  0  0999 V2000     
   19.7309   19.6655   25.9909 N   0  3  0  0  0  0  0  0  0  0  0  0
   19.4483   18.9116   26.6359 H   0  0  0  0  0  0  0  0  0  0  0  0
   19.2463   20.5086   26.3378 H   0  0  0  0  0  0  0  0  0  0  0  0
   19.2625   19.3536   24.5798 C   0  0  0  0  0  0  0  0  0  0  0  0
   19.6227   20.1506   23.9277 H   0  0  0  0  0  0  0  0  0  0  0  0
   18.1702   19.3912   24.5849 H   0  0  0  0  0  0  0  0  0  0  0  0
   19.7112   17.9744   24.0484 C   0  0  0  0  0  0  0  0  0  0  0  0
   20.8056   17.8918   24.0557 H   0  0  0  0  0  0  0  0  0  0  0  0
   19.3384   17.2067   24.7392 H   0  0  0  0  0  0  0  0  0  0  0  0
   19.1696   17.6677   22.6293 C   0  0  0  0  0  0  0  0  0  0  0  0
   18.1489   18.0606   22.5228 H   0  0  0  0  0  0  0  0  0  0  0  0
   19.0802   16.5774   22.5253 H   0  0  0  0  0  0  0  0  0  0  0  0
   20.0609   18.1770   21.4666 C   0  0  0  0  0  0  0  0  0  0  0  0
   21.0438   17.6885   21.5186 H   0  0  0  0  0  0  0  0  0  0  0  0
   19.6085   17.8496   20.5202 H   0  0  0  0  0  0  0  0  0  0  0  0
   20.2531   19.7107   21.4263 C   0  0  0  0  0  0  0  0  0  0  0  0
   20.8411   20.0369   22.2941 H   0  0  0  0  0  0  0  0  0  0  0  0
   19.2768   20.2116   21.4865 H   0  0  0  0  0  0  0  0  0  0  0  0
   20.9803   20.1601   20.1409 C   0  0  0  0  0  0  0  0  0  0  0  0
   20.4060   19.8880   19.2457 H   0  0  0  0  0  0  0  0  0  0  0  0
   21.9719   19.6950   20.0653 H   0  0  0  0  0  0  0  0  0  0  0  0
   21.1177   21.2492   20.1338 H   0  0  0  0  0  0  0  0  0  0  0  0
   21.2394   19.8810   26.0349 C   0  0  0  0  0  0  0  0  0  0  0  0
   21.5053   20.6961   25.3584 H   0  0  0  0  0  0  0  0  0  0  0  0
   21.5337   20.1378   27.0549 H   0  0  0  0  0  0  0  0  0  0  0  0
   21.7454   18.9638   25.7273 H   0  0  0  0  0  0  0  0  0  0  0  0
  1  2  1  0  0  0  0
  1  3  1  0  0  0  0
  1  4  1  0  0  0  0
  4  5  1  0  0  0  0
  4  6  1  0  0  0  0
  4  7  1  0  0  0  0
  7  8  1  0  0  0  0
  7  9  1  0  0  0  0
  7 10  1  0  0  0  0
 10 11  1  0  0  0  0
 10 12  1  0  0  0  0
 10 13  1  0  0  0  0
 13 14  1  0  0  0  0
 13 15  1  0  0  0  0
 13 16  1  0  0  0  0
 16 17  1  0  0  0  0
 16 18  1  0  0  0  0
 16 19  1  0  0  0  0
 19 20  1  0  0  0  0
 19 21  1  0  0  0  0
 19 22  1  0  0  0  0
  1 23  1  0  0  0  0
 23 24  1  0  0  0  0
 23 25  1  0  0  0  0
 23 26  1  0  0  0  0
M  END
> <VM2 Rank>
116

> <Conf_Id>
1278

> <Probability>
0.04

> <Sum Probability>
99.02

> <Delta G>
3.140

> <G>
78.606

> <E>
45.958

> <-TS>
32.648

> <U+W>
24.496

> <U>
74.229

> <W>
-49.733

> <W(PB)>
-51.984

> <W(SA)>
2.251

> <Valence>
4.376

> <Coulomb>
69.549

> <VdW>
0.303

> <VdW6>
-7.808

> <VdW12>
8.111

> <Bond>
0.233

> <Angle>
1.219

> <Pdih>
2.925

> <Idih>
0.000

> <Tether>
0.000

$$$$
VeraChem MOL file


 26 25  0  0  0  0  0  0  0  0999 V2000     
   20.5602   18.6236   25.3149 N   0  3  0  0  0  0  0  0  0  0  0  0
   21.0690   18.5628   24.4215 H   0  0  0  0  0  0  0  0  0  0  0  0
   20.3030   17.6531   25.5531 H   0  0  0  0  0  0  0  0  0  0  0  0
   19.3106   19.4672   25.1490 C   0  0  0  0  0  0  0  0  0  0  0  0
   19.6123   20.4969   24.9421 H   0  0  0  0  0  0  0  0  0  0  0  0
   18.7891   19.4528   26.1095 H   0  0  0  0  0  0  0  0  0  0  0  0
   18.3500   18.9721   24.0473 C   0  0  0  0  0  0  0  0  0  0  0  0
   18.2672   17.8777   24.0838 H   0  0  0  0  0  0  0  0  0  0  0  0
   17.3481   19.3574   24.2788 H   0  0  0  0  0  0  0  0  0  0  0  0
   18.7195   19.4388   22.6158 C   0  0  0  0  0  0  0  0  0  0  0  0
   18.7210   20.5371   22.5790 H   0  0  0  0  0  0  0  0  0  0  0  0
   17.9228   19.1115   21.9334 H   0  0  0  0  0  0  0  0  0  0  0  0
   20.0760   18.9046   22.0970 C   0  0  0  0  0  0  0  0  0  0  0  0
   20.8960   19.3452   22.6776 H   0  0  0  0  0  0  0  0  0  0  0  0
   20.1221   17.8153   22.2343 H   0  0  0  0  0  0  0  0  0  0  0  0
   20.2916   19.2418   20.6048 C   0  0  0  0  0  0  0  0  0  0  0  0
   20.2392   20.3299   20.4587 H   0  0  0  0  0  0  0  0  0  0  0  0
   19.4834   18.8023   20.0034 H   0  0  0  0  0  0  0  0  0  0  0  0
   21.6512   18.7211   20.0915 C   0  0  0  0  0  0  0  0  0  0  0  0
   21.7853   18.9686   19.0304 H   0  0  0  0  0  0  0  0  0  0  0  0
   21.7206   17.6302   20.1938 H   0  0  0  0  0  0  0  0  0  0  0  0
   22.4830   19.1706   20.6494 H   0  0  0  0  0  0  0  0  0  0  0  0
   21.4489   19.2210   26.3968 C   0  0  0  0  0  0  0  0  0  0  0  0
   20.8990   19.2449   27.3402 H   0  0  0  0  0  0  0  0  0  0  0  0
   22.3435   18.6040   26.5070 H   0  0  0  0  0  0  0  0  0  0  0  0
   21.7334   20.2353   26.1085 H   0  0  0  0  0  0  0  0  0  0  0  0
  1  2  1  0  0  0  0
  1  3  1  0  0  0  0
  1  4  1  0  0  0  0
  4  5  1  0  0  0  0
  4  6  1  0  0  0  0
  4  7  1  0  0  0  0
  7  8  1  0  0  0  0
  7  9  1  0  0  0  0
  7 10  1  0  0  0  0
 10 11  1  0  0  0  0
 10 12  1  0  0  0  0
 10 13  1  0  0  0  0
 13 14  1  0  0  0  0
 13 15  1  0  0  0  0
 13 16  1  0  0  0  0
 16 17  1  0  0  0  0
 16 18  1  0  0  0  0
 16 19  1  0  0  0  0
 19 20  1  0  0  0  0
 19 21  1  0  0  0  0
 19 22  1  0  0  0  0
  1 23  1  0  0  0  0
 23 24  1  0  0  0  0
 23 25  1  0  0  0  0
 23 26  1  0  0  0  0
M  END
> <VM2 Rank>
117

> <Conf_Id>
937

> <Probability>
0.03

> <Sum Probability>
99.06

> <Delta G>
3.148

> <G>
78.614

> <E>
46.269

> <-TS>
32.345

> <U+W>
24.807

> <U>
73.983

> <W>
-49.176

> <W(PB)>
-51.451

> <W(SA)>
2.276

> <Valence>
3.347

> <Coulomb>
70.654

> <VdW>
-0.018

> <VdW6>
-6.980

> <VdW12>
6.962

> <Bond>
0.176

> <Angle>
0.935

> <Pdih>
2.235

> <Idih>
0.000

> <Tether>
0.000

$$$$
VeraChem MOL file


 26 25  0  0  0  0  0  0  0  0999 V2000     
   20.3471   19.3347   25.7619 N   0  3  0  0  0  0  0  0  0  0  0  0
   21.1633   18.7133   25.8665 H   0  0  0  0  0  0  0  0  0  0  0  0
   20.0998   19.6118   26.7250 H   0  0  0  0  0  0  0  0  0  0  0  0
   19.1820   18.5761   25.1449 C   0  0  0  0  0  0  0  0  0  0  0  0
   18.4995   19.2995   24.6928 H   0  0  0  0  0  0  0  0  0  0  0  0
   18.6527   18.0942   25.9708 H   0  0  0  0  0  0  0  0  0  0  0  0
   19.5672   17.4789   24.1251 C   0  0  0  0  0  0  0  0  0  0  0  0
   20.2441   16.7630   24.6097 H   0  0  0  0  0  0  0  0  0  0  0  0
   18.6620   16.9121   23.8704 H   0  0  0  0  0  0  0  0  0  0  0  0
   20.2187   17.9920   22.8174 C   0  0  0  0  0  0  0  0  0  0  0  0
   20.4580   17.1269   22.1838 H   0  0  0  0  0  0  0  0  0  0  0  0
   21.1784   18.4679   23.0503 H   0  0  0  0  0  0  0  0  0  0  0  0
   19.3047   18.9596   22.0231 C   0  0  0  0  0  0  0  0  0  0  0  0
   18.3426   18.4645   21.8321 H   0  0  0  0  0  0  0  0  0  0  0  0
   19.0776   19.8504   22.6228 H   0  0  0  0  0  0  0  0  0  0  0  0
   19.9092   19.4015   20.6688 C   0  0  0  0  0  0  0  0  0  0  0  0
   19.1536   19.9779   20.1167 H   0  0  0  0  0  0  0  0  0  0  0  0
   20.1314   18.5183   20.0537 H   0  0  0  0  0  0  0  0  0  0  0  0
   21.1819   20.2660   20.8192 C   0  0  0  0  0  0  0  0  0  0  0  0
   20.9915   21.1433   21.4508 H   0  0  0  0  0  0  0  0  0  0  0  0
   21.5189   20.6264   19.8386 H   0  0  0  0  0  0  0  0  0  0  0  0
   22.0081   19.6958   21.2614 H   0  0  0  0  0  0  0  0  0  0  0  0
   20.6971   20.5813   24.9566 C   0  0  0  0  0  0  0  0  0  0  0  0
   19.8215   21.2321   24.9075 H   0  0  0  0  0  0  0  0  0  0  0  0
   21.5174   21.1062   25.4513 H   0  0  0  0  0  0  0  0  0  0  0  0
   21.0003   20.2956   23.9487 H   0  0  0  0  0  0  0  0  0  0  0  0
  1  2  1  0  0  0  0
  1  3  1  0  0  0  0
  1  4  1  0  0  0  0
  4  5  1  0  0  0  0
  4  6  1  0  0  0  0
  4  7  1  0  0  0  0
  7  8  1  0  0  0  0
  7  9  1  0  0  0  0
  7 10  1  0  0  0  0
 10 11  1  0  0  0  0
 10 12  1  0  0  0  0
 10 13  1  0  0  0  0
 13 14  1  0  0  0  0
 13 15  1  0  0  0  0
 13 16  1  0  0  0  0
 16 17  1  0  0  0  0
 16 18  1  0  0  0  0
 16 19  1  0  0  0  0
 19 20  1  0  0  0  0
 19 21  1  0  0  0  0
 19 22  1  0  0  0  0
  1 23  1  0  0  0  0
 23 24  1  0  0  0  0
 23 25  1  0  0  0  0
 23 26  1  0  0  0  0
M  END
> <VM2 Rank>
118

> <Conf_Id>
479

> <Probability>
0.03

> <Sum Probability>
99.09

> <Delta G>
3.152

> <G>
78.618

> <E>
45.492

> <-TS>
33.127

> <U+W>
24.030

> <U>
74.177

> <W>
-50.147

> <W(PB)>
-52.281

> <W(SA)>
2.134

> <Valence>
4.524

> <Coulomb>
69.760

> <VdW>
-0.108

> <VdW6>
-9.141

> <VdW12>
9.034

> <Bond>
0.254

> <Angle>
1.400

> <Pdih>
2.871

> <Idih>
0.000

> <Tether>
0.000

$$$$
VeraChem MOL file


 26 25  0  0  0  0  0  0  0  0999 V2000     
   20.2414   18.9171   25.9227 N   0  3  0  0  0  0  0  0  0  0  0  0
   20.8264   18.4827   26.6538 H   0  0  0  0  0  0  0  0  0  0  0  0
   19.2979   18.9691   26.3356 H   0  0  0  0  0  0  0  0  0  0  0  0
   20.2311   18.0202   24.6940 C   0  0  0  0  0  0  0  0  0  0  0  0
   20.3371   16.9958   25.0598 H   0  0  0  0  0  0  0  0  0  0  0  0
   21.1122   18.2480   24.0896 H   0  0  0  0  0  0  0  0  0  0  0  0
   18.9480   18.0827   23.8330 C   0  0  0  0  0  0  0  0  0  0  0  0
   18.9676   17.2453   23.1241 H   0  0  0  0  0  0  0  0  0  0  0  0
   18.0767   17.9019   24.4760 H   0  0  0  0  0  0  0  0  0  0  0  0
   18.7376   19.4042   23.0492 C   0  0  0  0  0  0  0  0  0  0  0  0
   18.5331   20.2178   23.7566 H   0  0  0  0  0  0  0  0  0  0  0  0
   17.8270   19.3110   22.4416 H   0  0  0  0  0  0  0  0  0  0  0  0
   19.9162   19.8119   22.1270 C   0  0  0  0  0  0  0  0  0  0  0  0
   19.6713   20.7746   21.6575 H   0  0  0  0  0  0  0  0  0  0  0  0
   20.8204   19.9879   22.7238 H   0  0  0  0  0  0  0  0  0  0  0  0
   20.2209   18.7760   21.0193 C   0  0  0  0  0  0  0  0  0  0  0  0
   19.3081   18.5692   20.4432 H   0  0  0  0  0  0  0  0  0  0  0  0
   20.5374   17.8246   21.4672 H   0  0  0  0  0  0  0  0  0  0  0  0
   21.3275   19.2723   20.0644 C   0  0  0  0  0  0  0  0  0  0  0  0
   21.0305   20.2038   19.5652 H   0  0  0  0  0  0  0  0  0  0  0  0
   21.5327   18.5248   19.2870 H   0  0  0  0  0  0  0  0  0  0  0  0
   22.2632   19.4587   20.6076 H   0  0  0  0  0  0  0  0  0  0  0  0
   20.7852   20.3056   25.6075 C   0  0  0  0  0  0  0  0  0  0  0  0
   20.1409   20.7958   24.8770 H   0  0  0  0  0  0  0  0  0  0  0  0
   20.8105   20.8951   26.5267 H   0  0  0  0  0  0  0  0  0  0  0  0
   21.7957   20.2107   25.2042 H   0  0  0  0  0  0  0  0  0  0  0  0
  1  2  1  0  0  0  0
  1  3  1  0  0  0  0
  1  4  1  0  0  0  0
  4  5  1  0  0  0  0
  4  6  1  0  0  0  0
  4  7  1  0  0  0  0
  7  8  1  0  0  0  0
  7  9  1  0  0  0  0
  7 10  1  0  0  0  0
 10 11  1  0  0  0  0
 10 12  1  0  0  0  0
 10 13  1  0  0  0  0
 13 14  1  0  0  0  0
 13 15  1  0  0  0  0
 13 16  1  0  0  0  0
 16 17  1  0  0  0  0
 16 18  1  0  0  0  0
 16 19  1  0  0  0  0
 19 20  1  0  0  0  0
 19 21  1  0  0  0  0
 19 22  1  0  0  0  0
  1 23  1  0  0  0  0
 23 24  1  0  0  0  0
 23 25  1  0  0  0  0
 23 26  1  0  0  0  0
M  END
> <VM2 Rank>
119

> <Conf_Id>
573

> <Probability>
0.03

> <Sum Probability>
99.13

> <Delta G>
3.159

> <G>
78.625

> <E>
45.530

> <-TS>
33.095

> <U+W>
24.068

> <U>
74.107

> <W>
-50.038

> <W(PB)>
-52.240

> <W(SA)>
2.201

> <Valence>
4.500

> <Coulomb>
69.634

> <VdW>
-0.027

> <VdW6>
-8.973

> <VdW12>
8.946

> <Bond>
0.259

> <Angle>
1.562

> <Pdih>
2.679

> <Idih>
0.000

> <Tether>
0.000

$$$$
VeraChem MOL file


 26 25  0  0  0  0  0  0  0  0999 V2000     
   19.7134   18.8623   25.9041 N   0  3  0  0  0  0  0  0  0  0  0  0
   20.5949   19.1042   26.3814 H   0  0  0  0  0  0  0  0  0  0  0  0
   19.1806   18.3119   26.5958 H   0  0  0  0  0  0  0  0  0  0  0  0
   19.9934   17.9955   24.6857 C   0  0  0  0  0  0  0  0  0  0  0  0
   19.1286   18.0418   24.0196 H   0  0  0  0  0  0  0  0  0  0  0  0
   20.0747   16.9685   25.0508 H   0  0  0  0  0  0  0  0  0  0  0  0
   21.2932   18.3263   23.9160 C   0  0  0  0  0  0  0  0  0  0  0  0
   22.1360   18.3236   24.6195 H   0  0  0  0  0  0  0  0  0  0  0  0
   21.4955   17.5079   23.2135 H   0  0  0  0  0  0  0  0  0  0  0  0
   21.2820   19.6685   23.1392 C   0  0  0  0  0  0  0  0  0  0  0  0
   22.2325   19.7688   22.5975 H   0  0  0  0  0  0  0  0  0  0  0  0
   21.2651   20.5016   23.8533 H   0  0  0  0  0  0  0  0  0  0  0  0
   20.1122   19.8322   22.1340 C   0  0  0  0  0  0  0  0  0  0  0  0
   19.1516   19.8143   22.6648 H   0  0  0  0  0  0  0  0  0  0  0  0
   20.1863   20.8281   21.6759 H   0  0  0  0  0  0  0  0  0  0  0  0
   20.1051   18.7640   21.0151 C   0  0  0  0  0  0  0  0  0  0  0  0
   19.9603   17.7646   21.4465 H   0  0  0  0  0  0  0  0  0  0  0  0
   21.0789   18.7534   20.5058 H   0  0  0  0  0  0  0  0  0  0  0  0
   18.9897   19.0294   19.9815 C   0  0  0  0  0  0  0  0  0  0  0  0
   18.0001   19.0157   20.4565 H   0  0  0  0  0  0  0  0  0  0  0  0
   18.9974   18.2615   19.1971 H   0  0  0  0  0  0  0  0  0  0  0  0
   19.1233   20.0058   19.4977 H   0  0  0  0  0  0  0  0  0  0  0  0
   18.9191   20.1117   25.5414 C   0  0  0  0  0  0  0  0  0  0  0  0
   18.7093   20.6770   26.4522 H   0  0  0  0  0  0  0  0  0  0  0  0
   19.4982   20.7289   24.8539 H   0  0  0  0  0  0  0  0  0  0  0  0
   17.9803   19.8140   25.0695 H   0  0  0  0  0  0  0  0  0  0  0  0
  1  2  1  0  0  0  0
  1  3  1  0  0  0  0
  1  4  1  0  0  0  0
  4  5  1  0  0  0  0
  4  6  1  0  0  0  0
  4  7  1  0  0  0  0
  7  8  1  0  0  0  0
  7  9  1  0  0  0  0
  7 10  1  0  0  0  0
 10 11  1  0  0  0  0
 10 12  1  0  0  0  0
 10 13  1  0  0  0  0
 13 14  1  0  0  0  0
 13 15  1  0  0  0  0
 13 16  1  0  0  0  0
 16 17  1  0  0  0  0
 16 18  1  0  0  0  0
 16 19  1  0  0  0  0
 19 20  1  0  0  0  0
 19 21  1  0  0  0  0
 19 22  1  0  0  0  0
  1 23  1  0  0  0  0
 23 24  1  0  0  0  0
 23 25  1  0  0  0  0
 23 26  1  0  0  0  0
M  END
> <VM2 Rank>
120

> <Conf_Id>
852

> <Probability>
0.03

> <Sum Probability>
99.16

> <Delta G>
3.183

> <G>
78.649

> <E>
45.554

> <-TS>
33.095

> <U+W>
24.092

> <U>
74.107

> <W>
-50.015

> <W(PB)>
-52.190

> <W(SA)>
2.176

> <Valence>
4.500

> <Coulomb>
69.634

> <VdW>
-0.027

> <VdW6>
-8.973

> <VdW12>
8.946

> <Bond>
0.259

> <Angle>
1.561

> <Pdih>
2.679

> <Idih>
0.000

> <Tether>
0.000

$$$$
VeraChem MOL file


 26 25  0  0  0  0  0  0  0  0999 V2000     
   20.4768   18.6901   25.9375 N   0  3  0  0  0  0  0  0  0  0  0  0
   21.0717   17.8708   25.7407 H   0  0  0  0  0  0  0  0  0  0  0  0
   20.3074   18.6526   26.9552 H   0  0  0  0  0  0  0  0  0  0  0  0
   19.1470   18.5614   25.2069 C   0  0  0  0  0  0  0  0  0  0  0  0
   18.5426   19.4450   25.4268 H   0  0  0  0  0  0  0  0  0  0  0  0
   18.6423   17.6971   25.6461 H   0  0  0  0  0  0  0  0  0  0  0  0
   19.2338   18.3412   23.6800 C   0  0  0  0  0  0  0  0  0  0  0  0
   20.1266   17.7486   23.4444 H   0  0  0  0  0  0  0  0  0  0  0  0
   18.3699   17.7353   23.3766 H   0  0  0  0  0  0  0  0  0  0  0  0
   19.2123   19.6617   22.8691 C   0  0  0  0  0  0  0  0  0  0  0  0
   20.0885   20.2757   23.1045 H   0  0  0  0  0  0  0  0  0  0  0  0
   18.3404   20.2541   23.1790 H   0  0  0  0  0  0  0  0  0  0  0  0
   19.1331   19.4426   21.3360 C   0  0  0  0  0  0  0  0  0  0  0  0
   18.1894   18.9344   21.0948 H   0  0  0  0  0  0  0  0  0  0  0  0
   19.0804   20.4229   20.8426 H   0  0  0  0  0  0  0  0  0  0  0  0
   20.3064   18.6360   20.7226 C   0  0  0  0  0  0  0  0  0  0  0  0
   20.1451   18.5543   19.6386 H   0  0  0  0  0  0  0  0  0  0  0  0
   20.2998   17.6063   21.1045 H   0  0  0  0  0  0  0  0  0  0  0  0
   21.6910   19.2757   20.9730 C   0  0  0  0  0  0  0  0  0  0  0  0
   21.7155   20.3147   20.6198 H   0  0  0  0  0  0  0  0  0  0  0  0
   22.4731   18.7209   20.4387 H   0  0  0  0  0  0  0  0  0  0  0  0
   21.9509   19.2679   22.0388 H   0  0  0  0  0  0  0  0  0  0  0  0
   21.2075   19.9811   25.5919 C   0  0  0  0  0  0  0  0  0  0  0  0
   20.5435   20.8297   25.7702 H   0  0  0  0  0  0  0  0  0  0  0  0
   22.0949   20.0677   26.2230 H   0  0  0  0  0  0  0  0  0  0  0  0
   21.5091   19.9543   24.5437 H   0  0  0  0  0  0  0  0  0  0  0  0
  1  2  1  0  0  0  0
  1  3  1  0  0  0  0
  1  4  1  0  0  0  0
  4  5  1  0  0  0  0
  4  6  1  0  0  0  0
  4  7  1  0  0  0  0
  7  8  1  0  0  0  0
  7  9  1  0  0  0  0
  7 10  1  0  0  0  0
 10 11  1  0  0  0  0
 10 12  1  0  0  0  0
 10 13  1  0  0  0  0
 13 14  1  0  0  0  0
 13 15  1  0  0  0  0
 13 16  1  0  0  0  0
 16 17  1  0  0  0  0
 16 18  1  0  0  0  0
 16 19  1  0  0  0  0
 19 20  1  0  0  0  0
 19 21  1  0  0  0  0
 19 22  1  0  0  0  0
  1 23  1  0  0  0  0
 23 24  1  0  0  0  0
 23 25  1  0  0  0  0
 23 26  1  0  0  0  0
M  END
> <VM2 Rank>
121

> <Conf_Id>
1311

> <Probability>
0.03

> <Sum Probability>
99.19

> <Delta G>
3.253

> <G>
78.719

> <E>
45.989

> <-TS>
32.730

> <U+W>
24.527

> <U>
74.536

> <W>
-50.009

> <W(PB)>
-52.200

> <W(SA)>
2.191

> <Valence>
4.772

> <Coulomb>
69.421

> <VdW>
0.344

> <VdW6>
-8.669

> <VdW12>
9.013

> <Bond>
0.278

> <Angle>
1.581

> <Pdih>
2.912

> <Idih>
0.000

> <Tether>
0.000

$$$$
VeraChem MOL file


 26 25  0  0  0  0  0  0  0  0999 V2000     
   20.4727   18.4562   25.7731 N   0  3  0  0  0  0  0  0  0  0  0  0
   21.1038   17.9032   25.1739 H   0  0  0  0  0  0  0  0  0  0  0  0
   20.4071   17.9229   26.6545 H   0  0  0  0  0  0  0  0  0  0  0  0
   19.0928   18.5520   25.1416 C   0  0  0  0  0  0  0  0  0  0  0  0
   18.5909   19.4343   25.5465 H   0  0  0  0  0  0  0  0  0  0  0  0
   18.5351   17.6718   25.4717 H   0  0  0  0  0  0  0  0  0  0  0  0
   19.0686   18.5799   23.5970 C   0  0  0  0  0  0  0  0  0  0  0  0
   19.5499   17.6706   23.2154 H   0  0  0  0  0  0  0  0  0  0  0  0
   18.0202   18.5357   23.2738 H   0  0  0  0  0  0  0  0  0  0  0  0
   19.7348   19.8345   22.9806 C   0  0  0  0  0  0  0  0  0  0  0  0
   20.8146   19.8184   23.1730 H   0  0  0  0  0  0  0  0  0  0  0  0
   19.3455   20.7307   23.4830 H   0  0  0  0  0  0  0  0  0  0  0  0
   19.4853   19.9790   21.4570 C   0  0  0  0  0  0  0  0  0  0  0  0
   18.4085   20.1101   21.2818 H   0  0  0  0  0  0  0  0  0  0  0  0
   19.9608   20.9058   21.1076 H   0  0  0  0  0  0  0  0  0  0  0  0
   19.9919   18.7976   20.5905 C   0  0  0  0  0  0  0  0  0  0  0  0
   19.7510   19.0070   19.5389 H   0  0  0  0  0  0  0  0  0  0  0  0
   19.4472   17.8786   20.8455 H   0  0  0  0  0  0  0  0  0  0  0  0
   21.5133   18.5532   20.7127 C   0  0  0  0  0  0  0  0  0  0  0  0
   21.7885   18.2246   21.7225 H   0  0  0  0  0  0  0  0  0  0  0  0
   22.0793   19.4647   20.4810 H   0  0  0  0  0  0  0  0  0  0  0  0
   21.8346   17.7715   20.0123 H   0  0  0  0  0  0  0  0  0  0  0  0
   21.0487   19.8377   26.0646 C   0  0  0  0  0  0  0  0  0  0  0  0
   21.1571   20.3958   25.1339 H   0  0  0  0  0  0  0  0  0  0  0  0
   20.3738   20.3712   26.7374 H   0  0  0  0  0  0  0  0  0  0  0  0
   22.0257   19.7234   26.5394 H   0  0  0  0  0  0  0  0  0  0  0  0
  1  2  1  0  0  0  0
  1  3  1  0  0  0  0
  1  4  1  0  0  0  0
  4  5  1  0  0  0  0
  4  6  1  0  0  0  0
  4  7  1  0  0  0  0
  7  8  1  0  0  0  0
  7  9  1  0  0  0  0
  7 10  1  0  0  0  0
 10 11  1  0  0  0  0
 10 12  1  0  0  0  0
 10 13  1  0  0  0  0
 13 14  1  0  0  0  0
 13 15  1  0  0  0  0
 13 16  1  0  0  0  0
 16 17  1  0  0  0  0
 16 18  1  0  0  0  0
 16 19  1  0  0  0  0
 19 20  1  0  0  0  0
 19 21  1  0  0  0  0
 19 22  1  0  0  0  0
  1 23  1  0  0  0  0
 23 24  1  0  0  0  0
 23 25  1  0  0  0  0
 23 26  1  0  0  0  0
M  END
> <VM2 Rank>
122

> <Conf_Id>
565

> <Probability>
0.03

> <Sum Probability>
99.22

> <Delta G>
3.332

> <G>
78.798

> <E>
45.858

> <-TS>
32.939

> <U+W>
24.396

> <U>
74.342

> <W>
-49.946

> <W(PB)>
-52.136

> <W(SA)>
2.190

> <Valence>
4.643

> <Coulomb>
69.388

> <VdW>
0.311

> <VdW6>
-8.574

> <VdW12>
8.886

> <Bond>
0.266

> <Angle>
1.427

> <Pdih>
2.951

> <Idih>
0.000

> <Tether>
0.000

$$$$
VeraChem MOL file


 26 25  0  0  0  0  0  0  0  0999 V2000     
   19.6820   19.1879   25.9374 N   0  3  0  0  0  0  0  0  0  0  0  0
   19.9412   19.2640   26.9337 H   0  0  0  0  0  0  0  0  0  0  0  0
   18.7766   18.6945   25.9359 H   0  0  0  0  0  0  0  0  0  0  0  0
   20.7325   18.3650   25.2080 C   0  0  0  0  0  0  0  0  0  0  0  0
   21.1612   17.6828   25.9466 H   0  0  0  0  0  0  0  0  0  0  0  0
   21.5289   19.0360   24.8781 H   0  0  0  0  0  0  0  0  0  0  0  0
   20.2097   17.5152   24.0262 C   0  0  0  0  0  0  0  0  0  0  0  0
   21.0269   16.8698   23.6779 H   0  0  0  0  0  0  0  0  0  0  0  0
   19.4278   16.8380   24.3942 H   0  0  0  0  0  0  0  0  0  0  0  0
   19.6606   18.3175   22.8203 C   0  0  0  0  0  0  0  0  0  0  0  0
   18.7823   18.8992   23.1274 H   0  0  0  0  0  0  0  0  0  0  0  0
   19.2996   17.6001   22.0720 H   0  0  0  0  0  0  0  0  0  0  0  0
   20.7189   19.2463   22.1720 C   0  0  0  0  0  0  0  0  0  0  0  0
   21.1295   19.9257   22.9298 H   0  0  0  0  0  0  0  0  0  0  0  0
   21.5638   18.6456   21.8083 H   0  0  0  0  0  0  0  0  0  0  0  0
   20.1570   20.1032   21.0117 C   0  0  0  0  0  0  0  0  0  0  0  0
   20.9368   20.8040   20.6820 H   0  0  0  0  0  0  0  0  0  0  0  0
   19.3237   20.7206   21.3753 H   0  0  0  0  0  0  0  0  0  0  0  0
   19.6935   19.2679   19.7964 C   0  0  0  0  0  0  0  0  0  0  0  0
   20.4998   18.6174   19.4334 H   0  0  0  0  0  0  0  0  0  0  0  0
   19.3955   19.9256   18.9697 H   0  0  0  0  0  0  0  0  0  0  0  0
   18.8293   18.6394   20.0443 H   0  0  0  0  0  0  0  0  0  0  0  0
   19.5538   20.5869   25.3449 C   0  0  0  0  0  0  0  0  0  0  0  0
   19.2418   20.5178   24.3022 H   0  0  0  0  0  0  0  0  0  0  0  0
   18.8093   21.1481   25.9141 H   0  0  0  0  0  0  0  0  0  0  0  0
   20.5205   21.0912   25.4076 H   0  0  0  0  0  0  0  0  0  0  0  0
  1  2  1  0  0  0  0
  1  3  1  0  0  0  0
  1  4  1  0  0  0  0
  4  5  1  0  0  0  0
  4  6  1  0  0  0  0
  4  7  1  0  0  0  0
  7  8  1  0  0  0  0
  7  9  1  0  0  0  0
  7 10  1  0  0  0  0
 10 11  1  0  0  0  0
 10 12  1  0  0  0  0
 10 13  1  0  0  0  0
 13 14  1  0  0  0  0
 13 15  1  0  0  0  0
 13 16  1  0  0  0  0
 16 17  1  0  0  0  0
 16 18  1  0  0  0  0
 16 19  1  0  0  0  0
 19 20  1  0  0  0  0
 19 21  1  0  0  0  0
 19 22  1  0  0  0  0
  1 23  1  0  0  0  0
 23 24  1  0  0  0  0
 23 25  1  0  0  0  0
 23 26  1  0  0  0  0
M  END
> <VM2 Rank>
123

> <Conf_Id>
1589

> <Probability>
0.03

> <Sum Probability>
99.24

> <Delta G>
3.336

> <G>
78.802

> <E>
45.756

> <-TS>
33.046

> <U+W>
24.294

> <U>
74.192

> <W>
-49.898

> <W(PB)>
-52.092

> <W(SA)>
2.194

> <Valence>
4.602

> <Coulomb>
69.486

> <VdW>
0.104

> <VdW6>
-8.802

> <VdW12>
8.907

> <Bond>
0.257

> <Angle>
1.462

> <Pdih>
2.883

> <Idih>
0.000

> <Tether>
0.000

$$$$
VeraChem MOL file


 26 25  0  0  0  0  0  0  0  0999 V2000     
   19.0783   18.5585   25.6996 N   0  3  0  0  0  0  0  0  0  0  0  0
   19.2489   17.5567   25.5217 H   0  0  0  0  0  0  0  0  0  0  0  0
   18.0582   18.6346   25.8391 H   0  0  0  0  0  0  0  0  0  0  0  0
   19.4897   19.3844   24.4921 C   0  0  0  0  0  0  0  0  0  0  0  0
   19.3338   20.4378   24.7375 H   0  0  0  0  0  0  0  0  0  0  0  0
   18.8086   19.1257   23.6799 H   0  0  0  0  0  0  0  0  0  0  0  0
   20.9486   19.1659   24.0340 C   0  0  0  0  0  0  0  0  0  0  0  0
   21.6179   19.4884   24.8419 H   0  0  0  0  0  0  0  0  0  0  0  0
   21.1436   18.0966   23.8786 H   0  0  0  0  0  0  0  0  0  0  0  0
   21.3079   19.9638   22.7551 C   0  0  0  0  0  0  0  0  0  0  0  0
   22.3854   20.1780   22.7773 H   0  0  0  0  0  0  0  0  0  0  0  0
   20.8105   20.9436   22.7705 H   0  0  0  0  0  0  0  0  0  0  0  0
   21.0047   19.2323   21.4213 C   0  0  0  0  0  0  0  0  0  0  0  0
   21.3637   19.8631   20.5963 H   0  0  0  0  0  0  0  0  0  0  0  0
   21.5912   18.3044   21.3718 H   0  0  0  0  0  0  0  0  0  0  0  0
   19.5109   18.9073   21.1895 C   0  0  0  0  0  0  0  0  0  0  0  0
   18.9035   19.8100   21.3447 H   0  0  0  0  0  0  0  0  0  0  0  0
   19.1736   18.1582   21.9176 H   0  0  0  0  0  0  0  0  0  0  0  0
   19.2609   18.3609   19.7676 C   0  0  0  0  0  0  0  0  0  0  0  0
   18.1983   18.1260   19.6238 H   0  0  0  0  0  0  0  0  0  0  0  0
   19.8357   17.4424   19.5910 H   0  0  0  0  0  0  0  0  0  0  0  0
   19.5487   19.0962   19.0049 H   0  0  0  0  0  0  0  0  0  0  0  0
   19.8070   19.0169   26.9578 C   0  0  0  0  0  0  0  0  0  0  0  0
   19.5941   20.0741   27.1306 H   0  0  0  0  0  0  0  0  0  0  0  0
   19.4574   18.4268   27.8079 H   0  0  0  0  0  0  0  0  0  0  0  0
   20.8812   18.8713   26.8273 H   0  0  0  0  0  0  0  0  0  0  0  0
  1  2  1  0  0  0  0
  1  3  1  0  0  0  0
  1  4  1  0  0  0  0
  4  5  1  0  0  0  0
  4  6  1  0  0  0  0
  4  7  1  0  0  0  0
  7  8  1  0  0  0  0
  7  9  1  0  0  0  0
  7 10  1  0  0  0  0
 10 11  1  0  0  0  0
 10 12  1  0  0  0  0
 10 13  1  0  0  0  0
 13 14  1  0  0  0  0
 13 15  1  0  0  0  0
 13 16  1  0  0  0  0
 16 17  1  0  0  0  0
 16 18  1  0  0  0  0
 16 19  1  0  0  0  0
 19 20  1  0  0  0  0
 19 21  1  0  0  0  0
 19 22  1  0  0  0  0
  1 23  1  0  0  0  0
 23 24  1  0  0  0  0
 23 25  1  0  0  0  0
 23 26  1  0  0  0  0
M  END
> <VM2 Rank>
124

> <Conf_Id>
1290

> <Probability>
0.02

> <Sum Probability>
99.26

> <Delta G>
3.363

> <G>
78.829

> <E>
46.144

> <-TS>
32.685

> <U+W>
24.682

> <U>
74.467

> <W>
-49.785

> <W(PB)>
-52.031

> <W(SA)>
2.246

> <Valence>
4.430

> <Coulomb>
69.610

> <VdW>
0.428

> <VdW6>
-7.654

> <VdW12>
8.082

> <Bond>
0.236

> <Angle>
1.210

> <Pdih>
2.984

> <Idih>
0.000

> <Tether>
0.000

$$$$
VeraChem MOL file


 26 25  0  0  0  0  0  0  0  0999 V2000     
   19.6999   18.4408   26.0188 N   0  3  0  0  0  0  0  0  0  0  0  0
   20.5246   17.8440   26.1880 H   0  0  0  0  0  0  0  0  0  0  0  0
   18.9587   17.7998   25.6956 H   0  0  0  0  0  0  0  0  0  0  0  0
   20.0082   19.4671   24.9471 C   0  0  0  0  0  0  0  0  0  0  0  0
   20.8007   20.1182   25.3246 H   0  0  0  0  0  0  0  0  0  0  0  0
   19.1104   20.0711   24.7932 H   0  0  0  0  0  0  0  0  0  0  0  0
   20.4456   18.8401   23.6109 C   0  0  0  0  0  0  0  0  0  0  0  0
   21.3377   18.2214   23.7757 H   0  0  0  0  0  0  0  0  0  0  0  0
   19.6566   18.1696   23.2526 H   0  0  0  0  0  0  0  0  0  0  0  0
   20.7588   19.9273   22.5548 C   0  0  0  0  0  0  0  0  0  0  0  0
   21.5686   20.5591   22.9458 H   0  0  0  0  0  0  0  0  0  0  0  0
   19.8940   20.5918   22.4207 H   0  0  0  0  0  0  0  0  0  0  0  0
   21.2044   19.3503   21.1855 C   0  0  0  0  0  0  0  0  0  0  0  0
   21.9569   20.0273   20.7579 H   0  0  0  0  0  0  0  0  0  0  0  0
   21.7177   18.3889   21.3249 H   0  0  0  0  0  0  0  0  0  0  0  0
   20.0671   19.2008   20.1425 C   0  0  0  0  0  0  0  0  0  0  0  0
   20.5060   18.8546   19.1962 H   0  0  0  0  0  0  0  0  0  0  0  0
   19.6291   20.1863   19.9310 H   0  0  0  0  0  0  0  0  0  0  0  0
   18.9472   18.2208   20.5558 C   0  0  0  0  0  0  0  0  0  0  0  0
   18.3650   18.6133   21.3985 H   0  0  0  0  0  0  0  0  0  0  0  0
   19.3595   17.2437   20.8387 H   0  0  0  0  0  0  0  0  0  0  0  0
   18.2501   18.0623   19.7229 H   0  0  0  0  0  0  0  0  0  0  0  0
   19.2767   19.1427   27.3017 C   0  0  0  0  0  0  0  0  0  0  0  0
   18.3842   19.7412   27.1061 H   0  0  0  0  0  0  0  0  0  0  0  0
   19.0578   18.3927   28.0650 H   0  0  0  0  0  0  0  0  0  0  0  0
   20.0886   19.7892   27.6420 H   0  0  0  0  0  0  0  0  0  0  0  0
  1  2  1  0  0  0  0
  1  3  1  0  0  0  0
  1  4  1  0  0  0  0
  4  5  1  0  0  0  0
  4  6  1  0  0  0  0
  4  7  1  0  0  0  0
  7  8  1  0  0  0  0
  7  9  1  0  0  0  0
  7 10  1  0  0  0  0
 10 11  1  0  0  0  0
 10 12  1  0  0  0  0
 10 13  1  0  0  0  0
 13 14  1  0  0  0  0
 13 15  1  0  0  0  0
 13 16  1  0  0  0  0
 16 17  1  0  0  0  0
 16 18  1  0  0  0  0
 16 19  1  0  0  0  0
 19 20  1  0  0  0  0
 19 21  1  0  0  0  0
 19 22  1  0  0  0  0
  1 23  1  0  0  0  0
 23 24  1  0  0  0  0
 23 25  1  0  0  0  0
 23 26  1  0  0  0  0
M  END
> <VM2 Rank>
125

> <Conf_Id>
1834

> <Probability>
0.02

> <Sum Probability>
99.29

> <Delta G>
3.370

> <G>
78.836

> <E>
46.333

> <-TS>
32.503

> <U+W>
24.872

> <U>
74.070

> <W>
-49.199

> <W(PB)>
-51.476

> <W(SA)>
2.277

> <Valence>
4.689

> <Coulomb>
69.115

> <VdW>
0.266

> <VdW6>
-6.809

> <VdW12>
7.075

> <Bond>
0.212

> <Angle>
1.132

> <Pdih>
3.345

> <Idih>
0.000

> <Tether>
0.000

$$$$
VeraChem MOL file


 26 25  0  0  0  0  0  0  0  0999 V2000     
   20.9359   18.7472   25.7655 N   0  3  0  0  0  0  0  0  0  0  0  0
   21.9077   19.0256   25.9756 H   0  0  0  0  0  0  0  0  0  0  0  0
   20.9828   17.7328   25.5834 H   0  0  0  0  0  0  0  0  0  0  0  0
   20.4529   19.4821   24.5263 C   0  0  0  0  0  0  0  0  0  0  0  0
   21.2272   19.3712   23.7657 H   0  0  0  0  0  0  0  0  0  0  0  0
   20.3764   20.5436   24.7744 H   0  0  0  0  0  0  0  0  0  0  0  0
   19.1033   18.9782   23.9686 C   0  0  0  0  0  0  0  0  0  0  0  0
   19.1386   17.8927   23.8074 H   0  0  0  0  0  0  0  0  0  0  0  0
   18.3279   19.1539   24.7253 H   0  0  0  0  0  0  0  0  0  0  0  0
   18.6816   19.6969   22.6620 C   0  0  0  0  0  0  0  0  0  0  0  0
   18.9697   20.7565   22.7053 H   0  0  0  0  0  0  0  0  0  0  0  0
   17.5841   19.6901   22.6072 H   0  0  0  0  0  0  0  0  0  0  0  0
   19.2182   19.0508   21.3580 C   0  0  0  0  0  0  0  0  0  0  0  0
   18.8350   18.0244   21.2740 H   0  0  0  0  0  0  0  0  0  0  0  0
   18.7985   19.6025   20.5054 H   0  0  0  0  0  0  0  0  0  0  0  0
   20.7594   19.0342   21.2337 C   0  0  0  0  0  0  0  0  0  0  0  0
   21.1884   18.3628   21.9889 H   0  0  0  0  0  0  0  0  0  0  0  0
   21.1606   20.0393   21.4247 H   0  0  0  0  0  0  0  0  0  0  0  0
   21.2130   18.5594   19.8367 C   0  0  0  0  0  0  0  0  0  0  0  0
   22.3085   18.5438   19.7694 H   0  0  0  0  0  0  0  0  0  0  0  0
   20.8375   19.2273   19.0505 H   0  0  0  0  0  0  0  0  0  0  0  0
   20.8482   17.5454   19.6267 H   0  0  0  0  0  0  0  0  0  0  0  0
   20.0437   19.0412   26.9662 C   0  0  0  0  0  0  0  0  0  0  0  0
   20.4442   18.5274   27.8430 H   0  0  0  0  0  0  0  0  0  0  0  0
   20.0274   20.1184   27.1458 H   0  0  0  0  0  0  0  0  0  0  0  0
   19.0325   18.6839   26.7619 H   0  0  0  0  0  0  0  0  0  0  0  0
  1  2  1  0  0  0  0
  1  3  1  0  0  0  0
  1  4  1  0  0  0  0
  4  5  1  0  0  0  0
  4  6  1  0  0  0  0
  4  7  1  0  0  0  0
  7  8  1  0  0  0  0
  7  9  1  0  0  0  0
  7 10  1  0  0  0  0
 10 11  1  0  0  0  0
 10 12  1  0  0  0  0
 10 13  1  0  0  0  0
 13 14  1  0  0  0  0
 13 15  1  0  0  0  0
 13 16  1  0  0  0  0
 16 17  1  0  0  0  0
 16 18  1  0  0  0  0
 16 19  1  0  0  0  0
 19 20  1  0  0  0  0
 19 21  1  0  0  0  0
 19 22  1  0  0  0  0
  1 23  1  0  0  0  0
 23 24  1  0  0  0  0
 23 25  1  0  0  0  0
 23 26  1  0  0  0  0
M  END
> <VM2 Rank>
126

> <Conf_Id>
1370

> <Probability>
0.02

> <Sum Probability>
99.31

> <Delta G>
3.383

> <G>
78.849

> <E>
46.165

> <-TS>
32.684

> <U+W>
24.703

> <U>
74.467

> <W>
-49.764

> <W(PB)>
-52.028

> <W(SA)>
2.265

> <Valence>
4.430

> <Coulomb>
69.610

> <VdW>
0.428

> <VdW6>
-7.654

> <VdW12>
8.081

> <Bond>
0.236

> <Angle>
1.210

> <Pdih>
2.984

> <Idih>
0.000

> <Tether>
0.000

$$$$
VeraChem MOL file


 26 25  0  0  0  0  0  0  0  0999 V2000     
   20.8510   18.6719   25.8287 N   0  3  0  0  0  0  0  0  0  0  0  0
   21.8783   18.7029   25.9264 H   0  0  0  0  0  0  0  0  0  0  0  0
   20.6010   17.6795   25.9592 H   0  0  0  0  0  0  0  0  0  0  0  0
   20.4589   19.1342   24.4352 C   0  0  0  0  0  0  0  0  0  0  0  0
   21.0965   18.5965   23.7299 H   0  0  0  0  0  0  0  0  0  0  0  0
   20.6845   20.2007   24.3578 H   0  0  0  0  0  0  0  0  0  0  0  0
   18.9831   18.8798   24.0665 C   0  0  0  0  0  0  0  0  0  0  0  0
   18.7736   17.8039   24.1300 H   0  0  0  0  0  0  0  0  0  0  0  0
   18.3348   19.3657   24.8068 H   0  0  0  0  0  0  0  0  0  0  0  0
   18.5919   19.4006   22.6603 C   0  0  0  0  0  0  0  0  0  0  0  0
   18.7128   20.4917   22.6134 H   0  0  0  0  0  0  0  0  0  0  0  0
   17.5169   19.2156   22.5266 H   0  0  0  0  0  0  0  0  0  0  0  0
   19.3473   18.7249   21.4858 C   0  0  0  0  0  0  0  0  0  0  0  0
   19.5715   17.6781   21.7334 H   0  0  0  0  0  0  0  0  0  0  0  0
   18.6749   18.6925   20.6172 H   0  0  0  0  0  0  0  0  0  0  0  0
   20.6384   19.4681   21.0636 C   0  0  0  0  0  0  0  0  0  0  0  0
   21.3439   19.5320   21.9002 H   0  0  0  0  0  0  0  0  0  0  0  0
   20.3930   20.5017   20.7822 H   0  0  0  0  0  0  0  0  0  0  0  0
   21.3326   18.7699   19.8748 C   0  0  0  0  0  0  0  0  0  0  0  0
   22.2416   19.3122   19.5837 H   0  0  0  0  0  0  0  0  0  0  0  0
   20.6712   18.7281   18.9996 H   0  0  0  0  0  0  0  0  0  0  0  0
   21.6217   17.7431   20.1341 H   0  0  0  0  0  0  0  0  0  0  0  0
   20.2048   19.5405   26.9022 C   0  0  0  0  0  0  0  0  0  0  0  0
   19.1188   19.4505   26.8363 H   0  0  0  0  0  0  0  0  0  0  0  0
   20.5416   19.2029   27.8849 H   0  0  0  0  0  0  0  0  0  0  0  0
   20.5010   20.5804   26.7485 H   0  0  0  0  0  0  0  0  0  0  0  0
  1  2  1  0  0  0  0
  1  3  1  0  0  0  0
  1  4  1  0  0  0  0
  4  5  1  0  0  0  0
  4  6  1  0  0  0  0
  4  7  1  0  0  0  0
  7  8  1  0  0  0  0
  7  9  1  0  0  0  0
  7 10  1  0  0  0  0
 10 11  1  0  0  0  0
 10 12  1  0  0  0  0
 10 13  1  0  0  0  0
 13 14  1  0  0  0  0
 13 15  1  0  0  0  0
 13 16  1  0  0  0  0
 16 17  1  0  0  0  0
 16 18  1  0  0  0  0
 16 19  1  0  0  0  0
 19 20  1  0  0  0  0
 19 21  1  0  0  0  0
 19 22  1  0  0  0  0
  1 23  1  0  0  0  0
 23 24  1  0  0  0  0
 23 25  1  0  0  0  0
 23 26  1  0  0  0  0
M  END
> <VM2 Rank>
127

> <Conf_Id>
1592

> <Probability>
0.02

> <Sum Probability>
99.34

> <Delta G>
3.392

> <G>
78.858

> <E>
46.354

> <-TS>
32.504

> <U+W>
24.892

> <U>
74.474

> <W>
-49.582

> <W(PB)>
-51.831

> <W(SA)>
2.249

> <Valence>
4.600

> <Coulomb>
69.381

> <VdW>
0.493

> <VdW6>
-7.465

> <VdW12>
7.958

> <Bond>
0.243

> <Angle>
1.200

> <Pdih>
3.158

> <Idih>
0.000

> <Tether>
0.000

$$$$
VeraChem MOL file


 26 25  0  0  0  0  0  0  0  0999 V2000     
   20.4158   18.4571   25.9572 N   0  3  0  0  0  0  0  0  0  0  0  0
   21.4115   18.3076   25.7314 H   0  0  0  0  0  0  0  0  0  0  0  0
   19.9698   17.5318   25.8588 H   0  0  0  0  0  0  0  0  0  0  0  0
   19.8001   19.4406   24.9823 C   0  0  0  0  0  0  0  0  0  0  0  0
   20.3037   20.4018   25.1126 H   0  0  0  0  0  0  0  0  0  0  0  0
   18.7478   19.5640   25.2505 H   0  0  0  0  0  0  0  0  0  0  0  0
   19.9113   18.9928   23.5136 C   0  0  0  0  0  0  0  0  0  0  0  0
   20.9710   18.8594   23.2632 H   0  0  0  0  0  0  0  0  0  0  0  0
   19.4170   18.0201   23.3896 H   0  0  0  0  0  0  0  0  0  0  0  0
   19.2739   20.0281   22.5594 C   0  0  0  0  0  0  0  0  0  0  0  0
   19.8321   20.9727   22.6205 H   0  0  0  0  0  0  0  0  0  0  0  0
   18.2557   20.2527   22.9065 H   0  0  0  0  0  0  0  0  0  0  0  0
   19.1925   19.5722   21.0792 C   0  0  0  0  0  0  0  0  0  0  0  0
   18.5463   18.6880   20.9909 H   0  0  0  0  0  0  0  0  0  0  0  0
   18.6830   20.3670   20.5170 H   0  0  0  0  0  0  0  0  0  0  0  0
   20.5620   19.3054   20.4023 C   0  0  0  0  0  0  0  0  0  0  0  0
   21.3399   19.9391   20.8506 H   0  0  0  0  0  0  0  0  0  0  0  0
   20.4959   19.6096   19.3483 H   0  0  0  0  0  0  0  0  0  0  0  0
   20.9892   17.8193   20.4422 C   0  0  0  0  0  0  0  0  0  0  0  0
   20.2506   17.1857   19.9342 H   0  0  0  0  0  0  0  0  0  0  0  0
   21.1030   17.4488   21.4667 H   0  0  0  0  0  0  0  0  0  0  0  0
   21.9511   17.6828   19.9313 H   0  0  0  0  0  0  0  0  0  0  0  0
   20.2631   18.9745   27.3808 C   0  0  0  0  0  0  0  0  0  0  0  0
   20.7705   19.9377   27.4692 H   0  0  0  0  0  0  0  0  0  0  0  0
   19.2014   19.0932   27.6079 H   0  0  0  0  0  0  0  0  0  0  0  0
   20.7103   18.2572   28.0726 H   0  0  0  0  0  0  0  0  0  0  0  0
  1  2  1  0  0  0  0
  1  3  1  0  0  0  0
  1  4  1  0  0  0  0
  4  5  1  0  0  0  0
  4  6  1  0  0  0  0
  4  7  1  0  0  0  0
  7  8  1  0  0  0  0
  7  9  1  0  0  0  0
  7 10  1  0  0  0  0
 10 11  1  0  0  0  0
 10 12  1  0  0  0  0
 10 13  1  0  0  0  0
 13 14  1  0  0  0  0
 13 15  1  0  0  0  0
 13 16  1  0  0  0  0
 16 17  1  0  0  0  0
 16 18  1  0  0  0  0
 16 19  1  0  0  0  0
 19 20  1  0  0  0  0
 19 21  1  0  0  0  0
 19 22  1  0  0  0  0
  1 23  1  0  0  0  0
 23 24  1  0  0  0  0
 23 25  1  0  0  0  0
 23 26  1  0  0  0  0
M  END
> <VM2 Rank>
128

> <Conf_Id>
1852

> <Probability>
0.02

> <Sum Probability>
99.36

> <Delta G>
3.421

> <G>
78.887

> <E>
46.394

> <-TS>
32.493

> <U+W>
24.933

> <U>
74.134

> <W>
-49.201

> <W(PB)>
-51.486

> <W(SA)>
2.285

> <Valence>
4.712

> <Coulomb>
69.140

> <VdW>
0.281

> <VdW6>
-6.800

> <VdW12>
7.081

> <Bond>
0.212

> <Angle>
1.172

> <Pdih>
3.329

> <Idih>
0.000

> <Tether>
0.000

$$$$
VeraChem MOL file


 26 25  0  0  0  0  0  0  0  0999 V2000     
   20.3302   18.5050   26.0411 N   0  3  0  0  0  0  0  0  0  0  0  0
   21.2061   18.0288   25.7751 H   0  0  0  0  0  0  0  0  0  0  0  0
   19.6329   17.7532   26.1564 H   0  0  0  0  0  0  0  0  0  0  0  0
   19.8973   19.4558   24.9432 C   0  0  0  0  0  0  0  0  0  0  0  0
   20.6634   20.2294   24.8483 H   0  0  0  0  0  0  0  0  0  0  0  0
   18.9653   19.9311   25.2596 H   0  0  0  0  0  0  0  0  0  0  0  0
   19.6900   18.7632   23.5841 C   0  0  0  0  0  0  0  0  0  0  0  0
   20.6211   18.2679   23.2868 H   0  0  0  0  0  0  0  0  0  0  0  0
   18.9315   17.9762   23.6904 H   0  0  0  0  0  0  0  0  0  0  0  0
   19.2390   19.7725   22.5009 C   0  0  0  0  0  0  0  0  0  0  0  0
   19.9594   20.5986   22.4231 H   0  0  0  0  0  0  0  0  0  0  0  0
   18.2932   20.2254   22.8297 H   0  0  0  0  0  0  0  0  0  0  0  0
   19.0159   19.1274   21.1079 C   0  0  0  0  0  0  0  0  0  0  0  0
   18.6982   18.0814   21.2178 H   0  0  0  0  0  0  0  0  0  0  0  0
   18.1744   19.6421   20.6237 H   0  0  0  0  0  0  0  0  0  0  0  0
   20.2303   19.2175   20.1483 C   0  0  0  0  0  0  0  0  0  0  0  0
   20.4747   20.2725   19.9611 H   0  0  0  0  0  0  0  0  0  0  0  0
   19.9375   18.7969   19.1761 H   0  0  0  0  0  0  0  0  0  0  0  0
   21.4927   18.4800   20.6460 C   0  0  0  0  0  0  0  0  0  0  0  0
   22.2641   18.4711   19.8652 H   0  0  0  0  0  0  0  0  0  0  0  0
   21.2668   17.4379   20.9062 H   0  0  0  0  0  0  0  0  0  0  0  0
   21.9236   18.9755   21.5246 H   0  0  0  0  0  0  0  0  0  0  0  0
   20.5126   19.2686   27.3455 C   0  0  0  0  0  0  0  0  0  0  0  0
   19.5654   19.7359   27.6236 H   0  0  0  0  0  0  0  0  0  0  0  0
   20.8242   18.5726   28.1275 H   0  0  0  0  0  0  0  0  0  0  0  0
   21.2777   20.0360   27.2084 H   0  0  0  0  0  0  0  0  0  0  0  0
  1  2  1  0  0  0  0
  1  3  1  0  0  0  0
  1  4  1  0  0  0  0
  4  5  1  0  0  0  0
  4  6  1  0  0  0  0
  4  7  1  0  0  0  0
  7  8  1  0  0  0  0
  7  9  1  0  0  0  0
  7 10  1  0  0  0  0
 10 11  1  0  0  0  0
 10 12  1  0  0  0  0
 10 13  1  0  0  0  0
 13 14  1  0  0  0  0
 13 15  1  0  0  0  0
 13 16  1  0  0  0  0
 16 17  1  0  0  0  0
 16 18  1  0  0  0  0
 16 19  1  0  0  0  0
 19 20  1  0  0  0  0
 19 21  1  0  0  0  0
 19 22  1  0  0  0  0
  1 23  1  0  0  0  0
 23 24  1  0  0  0  0
 23 25  1  0  0  0  0
 23 26  1  0  0  0  0
M  END
> <VM2 Rank>
129

> <Conf_Id>
248

> <Probability>
0.02

> <Sum Probability>
99.38

> <Delta G>
3.438

> <G>
78.904

> <E>
46.401

> <-TS>
32.503

> <U+W>
24.940

> <U>
74.070

> <W>
-49.131

> <W(PB)>
-51.425

> <W(SA)>
2.294

> <Valence>
4.690

> <Coulomb>
69.115

> <VdW>
0.266

> <VdW6>
-6.809

> <VdW12>
7.075

> <Bond>
0.212

> <Angle>
1.133

> <Pdih>
3.345

> <Idih>
0.000

> <Tether>
0.000

$$$$
VeraChem MOL file


 26 25  0  0  0  0  0  0  0  0999 V2000     
   19.6312   18.3775   25.9293 N   0  3  0  0  0  0  0  0  0  0  0  0
   20.2595   17.5611   25.8689 H   0  0  0  0  0  0  0  0  0  0  0  0
   18.7040   18.0330   25.6355 H   0  0  0  0  0  0  0  0  0  0  0  0
   20.1038   19.4715   24.9930 C   0  0  0  0  0  0  0  0  0  0  0  0
   21.0885   19.8016   25.3335 H   0  0  0  0  0  0  0  0  0  0  0  0
   19.4098   20.3111   25.0809 H   0  0  0  0  0  0  0  0  0  0  0  0
   20.1881   19.0209   23.5234 C   0  0  0  0  0  0  0  0  0  0  0  0
   20.8750   18.1682   23.4413 H   0  0  0  0  0  0  0  0  0  0  0  0
   19.1969   18.6793   23.2003 H   0  0  0  0  0  0  0  0  0  0  0  0
   20.6699   20.1698   22.6089 C   0  0  0  0  0  0  0  0  0  0  0  0
   21.5955   20.5917   23.0249 H   0  0  0  0  0  0  0  0  0  0  0  0
   19.9307   20.9827   22.6240 H   0  0  0  0  0  0  0  0  0  0  0  0
   20.9448   19.7500   21.1414 C   0  0  0  0  0  0  0  0  0  0  0  0
   21.3226   20.6349   20.6106 H   0  0  0  0  0  0  0  0  0  0  0  0
   21.7599   19.0142   21.1048 H   0  0  0  0  0  0  0  0  0  0  0  0
   19.7076   19.2187   20.3721 C   0  0  0  0  0  0  0  0  0  0  0  0
   19.7850   19.5375   19.3231 H   0  0  0  0  0  0  0  0  0  0  0  0
   18.7889   19.6801   20.7602 H   0  0  0  0  0  0  0  0  0  0  0  0
   19.5856   17.6768   20.3924 C   0  0  0  0  0  0  0  0  0  0  0  0
   20.4701   17.2079   19.9419 H   0  0  0  0  0  0  0  0  0  0  0  0
   18.7088   17.3537   19.8164 H   0  0  0  0  0  0  0  0  0  0  0  0
   19.4771   17.2837   21.4090 H   0  0  0  0  0  0  0  0  0  0  0  0
   19.5770   18.9048   27.3565 C   0  0  0  0  0  0  0  0  0  0  0  0
   18.8818   19.7460   27.4023 H   0  0  0  0  0  0  0  0  0  0  0  0
   19.2355   18.1074   28.0203 H   0  0  0  0  0  0  0  0  0  0  0  0
   20.5748   19.2325   27.6565 H   0  0  0  0  0  0  0  0  0  0  0  0
  1  2  1  0  0  0  0
  1  3  1  0  0  0  0
  1  4  1  0  0  0  0
  4  5  1  0  0  0  0
  4  6  1  0  0  0  0
  4  7  1  0  0  0  0
  7  8  1  0  0  0  0
  7  9  1  0  0  0  0
  7 10  1  0  0  0  0
 10 11  1  0  0  0  0
 10 12  1  0  0  0  0
 10 13  1  0  0  0  0
 13 14  1  0  0  0  0
 13 15  1  0  0  0  0
 13 16  1  0  0  0  0
 16 17  1  0  0  0  0
 16 18  1  0  0  0  0
 16 19  1  0  0  0  0
 19 20  1  0  0  0  0
 19 21  1  0  0  0  0
 19 22  1  0  0  0  0
  1 23  1  0  0  0  0
 23 24  1  0  0  0  0
 23 25  1  0  0  0  0
 23 26  1  0  0  0  0
M  END
> <VM2 Rank>
130

> <Conf_Id>
1498

> <Probability>
0.02

> <Sum Probability>
99.40

> <Delta G>
3.452

> <G>
78.918

> <E>
46.426

> <-TS>
32.493

> <U+W>
24.964

> <U>
74.134

> <W>
-49.170

> <W(PB)>
-51.474

> <W(SA)>
2.304

> <Valence>
4.712

> <Coulomb>
69.140

> <VdW>
0.281

> <VdW6>
-6.800

> <VdW12>
7.081

> <Bond>
0.212

> <Angle>
1.171

> <Pdih>
3.329

> <Idih>
0.000

> <Tether>
0.000

$$$$
VeraChem MOL file


 26 25  0  0  0  0  0  0  0  0999 V2000     
   19.5898   18.3661   25.7421 N   0  3  0  0  0  0  0  0  0  0  0  0
   19.6998   17.8510   26.6298 H   0  0  0  0  0  0  0  0  0  0  0  0
   19.1268   17.7013   25.1043 H   0  0  0  0  0  0  0  0  0  0  0  0
   20.9627   18.7428   25.2079 C   0  0  0  0  0  0  0  0  0  0  0  0
   21.6621   17.9910   25.5824 H   0  0  0  0  0  0  0  0  0  0  0  0
   21.2467   19.7054   25.6405 H   0  0  0  0  0  0  0  0  0  0  0  0
   21.0887   18.7860   23.6686 C   0  0  0  0  0  0  0  0  0  0  0  0
   22.1444   18.9565   23.4198 H   0  0  0  0  0  0  0  0  0  0  0  0
   20.8286   17.8010   23.2608 H   0  0  0  0  0  0  0  0  0  0  0  0
   20.2279   19.8847   22.9981 C   0  0  0  0  0  0  0  0  0  0  0  0
   20.3920   20.8374   23.5202 H   0  0  0  0  0  0  0  0  0  0  0  0
   19.1627   19.6496   23.1144 H   0  0  0  0  0  0  0  0  0  0  0  0
   20.5493   20.0876   21.4947 C   0  0  0  0  0  0  0  0  0  0  0  0
   19.9222   20.9019   21.1063 H   0  0  0  0  0  0  0  0  0  0  0  0
   21.5870   20.4346   21.3946 H   0  0  0  0  0  0  0  0  0  0  0  0
   20.3536   18.8345   20.6032 C   0  0  0  0  0  0  0  0  0  0  0  0
   21.0532   18.0426   20.9024 H   0  0  0  0  0  0  0  0  0  0  0  0
   20.6205   19.0958   19.5697 H   0  0  0  0  0  0  0  0  0  0  0  0
   18.9081   18.2873   20.6200 C   0  0  0  0  0  0  0  0  0  0  0  0
   18.6346   17.9027   21.6103 H   0  0  0  0  0  0  0  0  0  0  0  0
   18.8012   17.4619   19.9044 H   0  0  0  0  0  0  0  0  0  0  0  0
   18.1875   19.0675   20.3426 H   0  0  0  0  0  0  0  0  0  0  0  0
   18.7279   19.6009   25.9824 C   0  0  0  0  0  0  0  0  0  0  0  0
   18.5743   20.1320   25.0424 H   0  0  0  0  0  0  0  0  0  0  0  0
   17.7634   19.2885   26.3888 H   0  0  0  0  0  0  0  0  0  0  0  0
   19.2326   20.2550   26.6967 H   0  0  0  0  0  0  0  0  0  0  0  0
  1  2  1  0  0  0  0
  1  3  1  0  0  0  0
  1  4  1  0  0  0  0
  4  5  1  0  0  0  0
  4  6  1  0  0  0  0
  4  7  1  0  0  0  0
  7  8  1  0  0  0  0
  7  9  1  0  0  0  0
  7 10  1  0  0  0  0
 10 11  1  0  0  0  0
 10 12  1  0  0  0  0
 10 13  1  0  0  0  0
 13 14  1  0  0  0  0
 13 15  1  0  0  0  0
 13 16  1  0  0  0  0
 16 17  1  0  0  0  0
 16 18  1  0  0  0  0
 16 19  1  0  0  0  0
 19 20  1  0  0  0  0
 19 21  1  0  0  0  0
 19 22  1  0  0  0  0
  1 23  1  0  0  0  0
 23 24  1  0  0  0  0
 23 25  1  0  0  0  0
 23 26  1  0  0  0  0
M  END
> <VM2 Rank>
131

> <Conf_Id>
1361

> <Probability>
0.02

> <Sum Probability>
99.42

> <Delta G>
3.464

> <G>
78.930

> <E>
45.991

> <-TS>
32.939

> <U+W>
24.530

> <U>
74.342

> <W>
-49.812

> <W(PB)>
-52.010

> <W(SA)>
2.197

> <Valence>
4.643

> <Coulomb>
69.388

> <VdW>
0.311

> <VdW6>
-8.574

> <VdW12>
8.885

> <Bond>
0.266

> <Angle>
1.427

> <Pdih>
2.950

> <Idih>
0.000

> <Tether>
0.000

$$$$
VeraChem MOL file


 26 25  0  0  0  0  0  0  0  0999 V2000     
   19.5262   19.2980   25.5503 N   0  3  0  0  0  0  0  0  0  0  0  0
   19.4162   18.5292   26.2297 H   0  0  0  0  0  0  0  0  0  0  0  0
   18.6730   19.2796   24.9720 H   0  0  0  0  0  0  0  0  0  0  0  0
   20.7483   19.0588   24.6850 C   0  0  0  0  0  0  0  0  0  0  0  0
   21.6214   19.0750   25.3422 H   0  0  0  0  0  0  0  0  0  0  0  0
   20.8341   19.8959   23.9913 H   0  0  0  0  0  0  0  0  0  0  0  0
   20.7188   17.7212   23.9145 C   0  0  0  0  0  0  0  0  0  0  0  0
   21.6874   17.5631   23.4220 H   0  0  0  0  0  0  0  0  0  0  0  0
   20.6189   16.9090   24.6468 H   0  0  0  0  0  0  0  0  0  0  0  0
   19.5766   17.5988   22.8700 C   0  0  0  0  0  0  0  0  0  0  0  0
   18.6419   18.0162   23.2659 H   0  0  0  0  0  0  0  0  0  0  0  0
   19.3758   16.5295   22.7153 H   0  0  0  0  0  0  0  0  0  0  0  0
   19.8852   18.2162   21.4810 C   0  0  0  0  0  0  0  0  0  0  0  0
   20.7610   17.7170   21.0438 H   0  0  0  0  0  0  0  0  0  0  0  0
   19.0422   17.9890   20.8137 H   0  0  0  0  0  0  0  0  0  0  0  0
   20.1169   19.7449   21.4892 C   0  0  0  0  0  0  0  0  0  0  0  0
   21.0595   19.9770   22.0012 H   0  0  0  0  0  0  0  0  0  0  0  0
   19.3110   20.2436   22.0454 H   0  0  0  0  0  0  0  0  0  0  0  0
   20.1819   20.3188   20.0576 C   0  0  0  0  0  0  0  0  0  0  0  0
   20.9956   19.8565   19.4837 H   0  0  0  0  0  0  0  0  0  0  0  0
   20.3599   21.4017   20.0819 H   0  0  0  0  0  0  0  0  0  0  0  0
   19.2415   20.1449   19.5185 H   0  0  0  0  0  0  0  0  0  0  0  0
   19.6542   20.6335   26.2694 C   0  0  0  0  0  0  0  0  0  0  0  0
   19.7369   21.4331   25.5301 H   0  0  0  0  0  0  0  0  0  0  0  0
   18.7685   20.7934   26.8884 H   0  0  0  0  0  0  0  0  0  0  0  0
   20.5464   20.6179   26.8993 H   0  0  0  0  0  0  0  0  0  0  0  0
  1  2  1  0  0  0  0
  1  3  1  0  0  0  0
  1  4  1  0  0  0  0
  4  5  1  0  0  0  0
  4  6  1  0  0  0  0
  4  7  1  0  0  0  0
  7  8  1  0  0  0  0
  7  9  1  0  0  0  0
  7 10  1  0  0  0  0
 10 11  1  0  0  0  0
 10 12  1  0  0  0  0
 10 13  1  0  0  0  0
 13 14  1  0  0  0  0
 13 15  1  0  0  0  0
 13 16  1  0  0  0  0
 16 17  1  0  0  0  0
 16 18  1  0  0  0  0
 16 19  1  0  0  0  0
 19 20  1  0  0  0  0
 19 21  1  0  0  0  0
 19 22  1  0  0  0  0
  1 23  1  0  0  0  0
 23 24  1  0  0  0  0
 23 25  1  0  0  0  0
 23 26  1  0  0  0  0
M  END
> <VM2 Rank>
132

> <Conf_Id>
979

> <Probability>
0.02

> <Sum Probability>
99.44

> <Delta G>
3.533

> <G>
78.999

> <E>
46.508

> <-TS>
32.491

> <U+W>
25.047

> <U>
74.583

> <W>
-49.537

> <W(PB)>
-51.784

> <W(SA)>
2.248

> <Valence>
4.289

> <Coulomb>
70.230

> <VdW>
0.064

> <VdW6>
-7.673

> <VdW12>
7.737

> <Bond>
0.226

> <Angle>
1.376

> <Pdih>
2.687

> <Idih>
0.000

> <Tether>
0.000

$$$$
VeraChem MOL file


 26 25  0  0  0  0  0  0  0  0999 V2000     
   20.3592   19.3849   25.5797 N   0  3  0  0  0  0  0  0  0  0  0  0
   21.2361   19.5470   25.0626 H   0  0  0  0  0  0  0  0  0  0  0  0
   20.5775   18.6503   26.2706 H   0  0  0  0  0  0  0  0  0  0  0  0
   19.2761   18.9053   24.6330 C   0  0  0  0  0  0  0  0  0  0  0  0
   19.0683   19.7118   23.9289 H   0  0  0  0  0  0  0  0  0  0  0  0
   18.3746   18.7365   25.2275 H   0  0  0  0  0  0  0  0  0  0  0  0
   19.6342   17.6081   23.8762 C   0  0  0  0  0  0  0  0  0  0  0  0
   19.8479   16.8286   24.6196 H   0  0  0  0  0  0  0  0  0  0  0  0
   18.7557   17.2575   23.3185 H   0  0  0  0  0  0  0  0  0  0  0  0
   20.8471   17.7312   22.9149 C   0  0  0  0  0  0  0  0  0  0  0  0
   21.2741   16.7274   22.7823 H   0  0  0  0  0  0  0  0  0  0  0  0
   21.6458   18.3293   23.3720 H   0  0  0  0  0  0  0  0  0  0  0  0
   20.5156   18.2818   21.5032 C   0  0  0  0  0  0  0  0  0  0  0  0
   21.4317   18.2378   20.8980 H   0  0  0  0  0  0  0  0  0  0  0  0
   19.7940   17.6163   21.0097 H   0  0  0  0  0  0  0  0  0  0  0  0
   19.9742   19.7300   21.4842 C   0  0  0  0  0  0  0  0  0  0  0  0
   20.6195   20.3799   22.0916 H   0  0  0  0  0  0  0  0  0  0  0  0
   18.9707   19.7595   21.9273 H   0  0  0  0  0  0  0  0  0  0  0  0
   19.8927   20.2887   20.0474 C   0  0  0  0  0  0  0  0  0  0  0  0
   20.8841   20.3159   19.5766 H   0  0  0  0  0  0  0  0  0  0  0  0
   19.4944   21.3116   20.0513 H   0  0  0  0  0  0  0  0  0  0  0  0
   19.2337   19.6730   19.4214 H   0  0  0  0  0  0  0  0  0  0  0  0
   19.9088   20.6600   26.2785 C   0  0  0  0  0  0  0  0  0  0  0  0
   18.9972   20.4564   26.8445 H   0  0  0  0  0  0  0  0  0  0  0  0
   20.6971   20.9944   26.9567 H   0  0  0  0  0  0  0  0  0  0  0  0
   19.7151   21.4309   25.5294 H   0  0  0  0  0  0  0  0  0  0  0  0
  1  2  1  0  0  0  0
  1  3  1  0  0  0  0
  1  4  1  0  0  0  0
  4  5  1  0  0  0  0
  4  6  1  0  0  0  0
  4  7  1  0  0  0  0
  7  8  1  0  0  0  0
  7  9  1  0  0  0  0
  7 10  1  0  0  0  0
 10 11  1  0  0  0  0
 10 12  1  0  0  0  0
 10 13  1  0  0  0  0
 13 14  1  0  0  0  0
 13 15  1  0  0  0  0
 13 16  1  0  0  0  0
 16 17  1  0  0  0  0
 16 18  1  0  0  0  0
 16 19  1  0  0  0  0
 19 20  1  0  0  0  0
 19 21  1  0  0  0  0
 19 22  1  0  0  0  0
  1 23  1  0  0  0  0
 23 24  1  0  0  0  0
 23 25  1  0  0  0  0
 23 26  1  0  0  0  0
M  END
> <VM2 Rank>
133

> <Conf_Id>
986

> <Probability>
0.02

> <Sum Probability>
99.46

> <Delta G>
3.543

> <G>
79.009

> <E>
46.518

> <-TS>
32.491

> <U+W>
25.056

> <U>
74.583

> <W>
-49.527

> <W(PB)>
-51.787

> <W(SA)>
2.260

> <Valence>
4.290

> <Coulomb>
70.230

> <VdW>
0.063

> <VdW6>
-7.673

> <VdW12>
7.736

> <Bond>
0.226

> <Angle>
1.377

> <Pdih>
2.687

> <Idih>
0.000

> <Tether>
0.000

$$$$
VeraChem MOL file


 26 25  0  0  0  0  0  0  0  0999 V2000     
   20.7790   18.6471   25.3955 N   0  3  0  0  0  0  0  0  0  0  0  0
   21.3409   18.8050   24.5476 H   0  0  0  0  0  0  0  0  0  0  0  0
   21.2504   17.8752   25.8933 H   0  0  0  0  0  0  0  0  0  0  0  0
   19.3686   18.2211   25.0191 C   0  0  0  0  0  0  0  0  0  0  0  0
   18.8064   18.1282   25.9517 H   0  0  0  0  0  0  0  0  0  0  0  0
   19.4287   17.2283   24.5661 H   0  0  0  0  0  0  0  0  0  0  0  0
   18.6078   19.1679   24.0617 C   0  0  0  0  0  0  0  0  0  0  0  0
   17.5408   18.9188   24.1319 H   0  0  0  0  0  0  0  0  0  0  0  0
   18.6916   20.2081   24.4008 H   0  0  0  0  0  0  0  0  0  0  0  0
   19.0228   19.0521   22.5725 C   0  0  0  0  0  0  0  0  0  0  0  0
   18.3215   19.6522   21.9764 H   0  0  0  0  0  0  0  0  0  0  0  0
   18.8955   18.0126   22.2416 H   0  0  0  0  0  0  0  0  0  0  0  0
   20.4664   19.5277   22.2716 C   0  0  0  0  0  0  0  0  0  0  0  0
   20.6438   20.4896   22.7724 H   0  0  0  0  0  0  0  0  0  0  0  0
   21.1904   18.8142   22.6831 H   0  0  0  0  0  0  0  0  0  0  0  0
   20.7487   19.7010   20.7596 C   0  0  0  0  0  0  0  0  0  0  0  0
   21.7578   20.1179   20.6335 H   0  0  0  0  0  0  0  0  0  0  0  0
   20.0561   20.4407   20.3341 H   0  0  0  0  0  0  0  0  0  0  0  0
   20.6507   18.3796   19.9637 C   0  0  0  0  0  0  0  0  0  0  0  0
   19.6285   17.9811   19.9692 H   0  0  0  0  0  0  0  0  0  0  0  0
   21.3198   17.6161   20.3812 H   0  0  0  0  0  0  0  0  0  0  0  0
   20.9369   18.5397   18.9161 H   0  0  0  0  0  0  0  0  0  0  0  0
   20.7640   19.8933   26.2732 C   0  0  0  0  0  0  0  0  0  0  0  0
   20.1743   19.6929   27.1703 H   0  0  0  0  0  0  0  0  0  0  0  0
   21.7892   20.1441   26.5547 H   0  0  0  0  0  0  0  0  0  0  0  0
   20.3232   20.7230   25.7174 H   0  0  0  0  0  0  0  0  0  0  0  0
  1  2  1  0  0  0  0
  1  3  1  0  0  0  0
  1  4  1  0  0  0  0
  4  5  1  0  0  0  0
  4  6  1  0  0  0  0
  4  7  1  0  0  0  0
  7  8  1  0  0  0  0
  7  9  1  0  0  0  0
  7 10  1  0  0  0  0
 10 11  1  0  0  0  0
 10 12  1  0  0  0  0
 10 13  1  0  0  0  0
 13 14  1  0  0  0  0
 13 15  1  0  0  0  0
 13 16  1  0  0  0  0
 16 17  1  0  0  0  0
 16 18  1  0  0  0  0
 16 19  1  0  0  0  0
 19 20  1  0  0  0  0
 19 21  1  0  0  0  0
 19 22  1  0  0  0  0
  1 23  1  0  0  0  0
 23 24  1  0  0  0  0
 23 25  1  0  0  0  0
 23 26  1  0  0  0  0
M  END
> <VM2 Rank>
134

> <Conf_Id>
1887

> <Probability>
0.02

> <Sum Probability>
99.47

> <Delta G>
3.549

> <G>
79.015

> <E>
46.512

> <-TS>
32.503

> <U+W>
25.051

> <U>
74.899

> <W>
-49.849

> <W(PB)>
-52.063

> <W(SA)>
2.214

> <Valence>
4.085

> <Coulomb>
70.542

> <VdW>
0.272

> <VdW6>
-8.421

> <VdW12>
8.694

> <Bond>
0.258

> <Angle>
1.368

> <Pdih>
2.459

> <Idih>
0.000

> <Tether>
0.000

$$$$
VeraChem MOL file


 26 25  0  0  0  0  0  0  0  0999 V2000     
   19.9455   18.9620   26.2809 N   0  3  0  0  0  0  0  0  0  0  0  0
   19.8015   17.9478   26.4036 H   0  0  0  0  0  0  0  0  0  0  0  0
   19.4964   19.3960   27.1030 H   0  0  0  0  0  0  0  0  0  0  0  0
   19.2569   19.4411   25.0138 C   0  0  0  0  0  0  0  0  0  0  0  0
   19.4674   20.5074   24.8991 H   0  0  0  0  0  0  0  0  0  0  0  0
   18.1809   19.3222   25.1642 H   0  0  0  0  0  0  0  0  0  0  0  0
   19.6704   18.6847   23.7351 C   0  0  0  0  0  0  0  0  0  0  0  0
   20.7450   18.8111   23.5662 H   0  0  0  0  0  0  0  0  0  0  0  0
   19.4963   17.6102   23.8782 H   0  0  0  0  0  0  0  0  0  0  0  0
   18.8693   19.1787   22.5065 C   0  0  0  0  0  0  0  0  0  0  0  0
   18.9822   20.2653   22.3874 H   0  0  0  0  0  0  0  0  0  0  0  0
   17.8021   19.0046   22.7027 H   0  0  0  0  0  0  0  0  0  0  0  0
   19.2506   18.4562   21.1878 C   0  0  0  0  0  0  0  0  0  0  0  0
   19.5858   17.4310   21.3973 H   0  0  0  0  0  0  0  0  0  0  0  0
   18.3409   18.3509   20.5803 H   0  0  0  0  0  0  0  0  0  0  0  0
   20.3043   19.1954   20.3235 C   0  0  0  0  0  0  0  0  0  0  0  0
   19.9148   20.1803   20.0303 H   0  0  0  0  0  0  0  0  0  0  0  0
   20.4437   18.6339   19.3891 H   0  0  0  0  0  0  0  0  0  0  0  0
   21.6792   19.3708   21.0049 C   0  0  0  0  0  0  0  0  0  0  0  0
   22.4096   19.7789   20.2945 H   0  0  0  0  0  0  0  0  0  0  0  0
   22.0665   18.4107   21.3698 H   0  0  0  0  0  0  0  0  0  0  0  0
   21.6198   20.0687   21.8490 H   0  0  0  0  0  0  0  0  0  0  0  0
   21.4319   19.3011   26.2645 C   0  0  0  0  0  0  0  0  0  0  0  0
   21.5523   20.3807   26.1516 H   0  0  0  0  0  0  0  0  0  0  0  0
   21.8825   18.9763   27.2050 H   0  0  0  0  0  0  0  0  0  0  0  0
   21.9118   18.7851   25.4306 H   0  0  0  0  0  0  0  0  0  0  0  0
  1  2  1  0  0  0  0
  1  3  1  0  0  0  0
  1  4  1  0  0  0  0
  4  5  1  0  0  0  0
  4  6  1  0  0  0  0
  4  7  1  0  0  0  0
  7  8  1  0  0  0  0
  7  9  1  0  0  0  0
  7 10  1  0  0  0  0
 10 11  1  0  0  0  0
 10 12  1  0  0  0  0
 10 13  1  0  0  0  0
 13 14  1  0  0  0  0
 13 15  1  0  0  0  0
 13 16  1  0  0  0  0
 16 17  1  0  0  0  0
 16 18  1  0  0  0  0
 16 19  1  0  0  0  0
 19 20  1  0  0  0  0
 19 21  1  0  0  0  0
 19 22  1  0  0  0  0
  1 23  1  0  0  0  0
 23 24  1  0  0  0  0
 23 25  1  0  0  0  0
 23 26  1  0  0  0  0
M  END
> <VM2 Rank>
135

> <Conf_Id>
1364

> <Probability>
0.02

> <Sum Probability>
99.49

> <Delta G>
3.590

> <G>
79.056

> <E>
46.373

> <-TS>
32.684

> <U+W>
24.911

> <U>
74.399

> <W>
-49.488

> <W(PB)>
-51.724

> <W(SA)>
2.236

> <Valence>
4.963

> <Coulomb>
68.942

> <VdW>
0.494

> <VdW6>
-7.589

> <VdW12>
8.083

> <Bond>
0.249

> <Angle>
1.244

> <Pdih>
3.470

> <Idih>
0.000

> <Tether>
0.000

$$$$
VeraChem MOL file


 26 25  0  0  0  0  0  0  0  0999 V2000     
   19.2787   18.4937   25.3423 N   0  3  0  0  0  0  0  0  0  0  0  0
   18.9393   17.6390   25.8117 H   0  0  0  0  0  0  0  0  0  0  0  0
   18.7573   18.5402   24.4559 H   0  0  0  0  0  0  0  0  0  0  0  0
   20.7689   18.3642   25.0690 C   0  0  0  0  0  0  0  0  0  0  0  0
   20.9427   17.3829   24.6203 H   0  0  0  0  0  0  0  0  0  0  0  0
   21.2714   18.3805   26.0394 H   0  0  0  0  0  0  0  0  0  0  0  0
   21.3879   19.4518   24.1602 C   0  0  0  0  0  0  0  0  0  0  0  0
   21.0724   20.4512   24.4851 H   0  0  0  0  0  0  0  0  0  0  0  0
   22.4757   19.4228   24.3067 H   0  0  0  0  0  0  0  0  0  0  0  0
   21.1100   19.2651   22.6465 C   0  0  0  0  0  0  0  0  0  0  0  0
   21.4672   18.2750   22.3330 H   0  0  0  0  0  0  0  0  0  0  0  0
   21.7160   19.9984   22.0966 H   0  0  0  0  0  0  0  0  0  0  0  0
   19.6249   19.4421   22.2419 C   0  0  0  0  0  0  0  0  0  0  0  0
   19.0326   18.5944   22.6068 H   0  0  0  0  0  0  0  0  0  0  0  0
   19.2227   20.3449   22.7220 H   0  0  0  0  0  0  0  0  0  0  0  0
   19.4200   19.5655   20.7126 C   0  0  0  0  0  0  0  0  0  0  0  0
   19.9774   20.4325   20.3312 H   0  0  0  0  0  0  0  0  0  0  0  0
   18.3590   19.7712   20.5131 H   0  0  0  0  0  0  0  0  0  0  0  0
   19.8379   18.2965   19.9352 C   0  0  0  0  0  0  0  0  0  0  0  0
   20.9164   18.1121   20.0151 H   0  0  0  0  0  0  0  0  0  0  0  0
   19.5993   18.4029   18.8690 H   0  0  0  0  0  0  0  0  0  0  0  0
   19.3088   17.4109   20.3104 H   0  0  0  0  0  0  0  0  0  0  0  0
   18.9796   19.7112   26.2093 C   0  0  0  0  0  0  0  0  0  0  0  0
   17.9078   19.7476   26.4164 H   0  0  0  0  0  0  0  0  0  0  0  0
   19.5333   19.6283   27.1470 H   0  0  0  0  0  0  0  0  0  0  0  0
   19.2815   20.6166   25.6793 H   0  0  0  0  0  0  0  0  0  0  0  0
  1  2  1  0  0  0  0
  1  3  1  0  0  0  0
  1  4  1  0  0  0  0
  4  5  1  0  0  0  0
  4  6  1  0  0  0  0
  4  7  1  0  0  0  0
  7  8  1  0  0  0  0
  7  9  1  0  0  0  0
  7 10  1  0  0  0  0
 10 11  1  0  0  0  0
 10 12  1  0  0  0  0
 10 13  1  0  0  0  0
 13 14  1  0  0  0  0
 13 15  1  0  0  0  0
 13 16  1  0  0  0  0
 16 17  1  0  0  0  0
 16 18  1  0  0  0  0
 16 19  1  0  0  0  0
 19 20  1  0  0  0  0
 19 21  1  0  0  0  0
 19 22  1  0  0  0  0
  1 23  1  0  0  0  0
 23 24  1  0  0  0  0
 23 25  1  0  0  0  0
 23 26  1  0  0  0  0
M  END
> <VM2 Rank>
136

> <Conf_Id>
278

> <Probability>
0.02

> <Sum Probability>
99.51

> <Delta G>
3.611

> <G>
79.077

> <E>
46.576

> <-TS>
32.501

> <U+W>
25.114

> <U>
74.899

> <W>
-49.785

> <W(PB)>
-51.982

> <W(SA)>
2.197

> <Valence>
4.084

> <Coulomb>
70.543

> <VdW>
0.272

> <VdW6>
-8.421

> <VdW12>
8.694

> <Bond>
0.258

> <Angle>
1.368

> <Pdih>
2.458

> <Idih>
0.000

> <Tether>
0.000

$$$$
VeraChem MOL file


 26 25  0  0  0  0  0  0  0  0999 V2000     
   20.5430   18.7319   26.1390 N   0  3  0  0  0  0  0  0  0  0  0  0
   20.8966   19.1597   27.0096 H   0  0  0  0  0  0  0  0  0  0  0  0
   21.2689   18.0530   25.8623 H   0  0  0  0  0  0  0  0  0  0  0  0
   20.3908   19.8031   25.0719 C   0  0  0  0  0  0  0  0  0  0  0  0
   21.3246   20.3706   25.0461 H   0  0  0  0  0  0  0  0  0  0  0  0
   19.5916   20.4793   25.3855 H   0  0  0  0  0  0  0  0  0  0  0  0
   20.0949   19.2613   23.6586 C   0  0  0  0  0  0  0  0  0  0  0  0
   20.8800   18.5468   23.3826 H   0  0  0  0  0  0  0  0  0  0  0  0
   19.1406   18.7192   23.6608 H   0  0  0  0  0  0  0  0  0  0  0  0
   20.0380   20.4037   22.6194 C   0  0  0  0  0  0  0  0  0  0  0  0
   21.0246   20.8823   22.5488 H   0  0  0  0  0  0  0  0  0  0  0  0
   19.3480   21.1792   22.9804 H   0  0  0  0  0  0  0  0  0  0  0  0
   19.5762   19.9632   21.2059 C   0  0  0  0  0  0  0  0  0  0  0  0
   18.5460   19.5833   21.2460 H   0  0  0  0  0  0  0  0  0  0  0  0
   19.5341   20.8635   20.5772 H   0  0  0  0  0  0  0  0  0  0  0  0
   20.5013   18.9319   20.5091 C   0  0  0  0  0  0  0  0  0  0  0  0
   21.5388   19.0585   20.8484 H   0  0  0  0  0  0  0  0  0  0  0  0
   20.5092   19.1425   19.4304 H   0  0  0  0  0  0  0  0  0  0  0  0
   20.0462   17.4664   20.7038 C   0  0  0  0  0  0  0  0  0  0  0  0
   20.7202   16.7817   20.1729 H   0  0  0  0  0  0  0  0  0  0  0  0
   19.0353   17.3137   20.3041 H   0  0  0  0  0  0  0  0  0  0  0  0
   20.0392   17.1719   21.7589 H   0  0  0  0  0  0  0  0  0  0  0  0
   19.2176   18.0286   26.4094 C   0  0  0  0  0  0  0  0  0  0  0  0
   18.4754   18.7683   26.7174 H   0  0  0  0  0  0  0  0  0  0  0  0
   18.8835   17.5242   25.5005 H   0  0  0  0  0  0  0  0  0  0  0  0
   19.3589   17.2944   27.2056 H   0  0  0  0  0  0  0  0  0  0  0  0
  1  2  1  0  0  0  0
  1  3  1  0  0  0  0
  1  4  1  0  0  0  0
  4  5  1  0  0  0  0
  4  6  1  0  0  0  0
  4  7  1  0  0  0  0
  7  8  1  0  0  0  0
  7  9  1  0  0  0  0
  7 10  1  0  0  0  0
 10 11  1  0  0  0  0
 10 12  1  0  0  0  0
 10 13  1  0  0  0  0
 13 14  1  0  0  0  0
 13 15  1  0  0  0  0
 13 16  1  0  0  0  0
 16 17  1  0  0  0  0
 16 18  1  0  0  0  0
 16 19  1  0  0  0  0
 19 20  1  0  0  0  0
 19 21  1  0  0  0  0
 19 22  1  0  0  0  0
  1 23  1  0  0  0  0
 23 24  1  0  0  0  0
 23 25  1  0  0  0  0
 23 26  1  0  0  0  0
M  END
> <VM2 Rank>
137

> <Conf_Id>
1846

> <Probability>
0.02

> <Sum Probability>
99.52

> <Delta G>
3.617

> <G>
79.083

> <E>
46.412

> <-TS>
32.671

> <U+W>
24.950

> <U>
74.475

> <W>
-49.525

> <W(PB)>
-51.777

> <W(SA)>
2.252

> <Valence>
4.983

> <Coulomb>
68.965

> <VdW>
0.526

> <VdW6>
-7.550

> <VdW12>
8.076

> <Bond>
0.247

> <Angle>
1.295

> <Pdih>
3.441

> <Idih>
0.000

> <Tether>
0.000

$$$$
VeraChem MOL file


 26 25  0  0  0  0  0  0  0  0999 V2000     
   19.9671   18.9639   26.2816 N   0  3  0  0  0  0  0  0  0  0  0  0
   20.2607   19.4736   27.1301 H   0  0  0  0  0  0  0  0  0  0  0  0
   20.3039   17.9988   26.4212 H   0  0  0  0  0  0  0  0  0  0  0  0
   20.6318   19.5815   25.0626 C   0  0  0  0  0  0  0  0  0  0  0  0
   21.6964   19.6813   25.2889 H   0  0  0  0  0  0  0  0  0  0  0  0
   20.2188   20.5840   24.9260 H   0  0  0  0  0  0  0  0  0  0  0  0
   20.4702   18.7665   23.7634 C   0  0  0  0  0  0  0  0  0  0  0  0
   20.8476   17.7483   23.9259 H   0  0  0  0  0  0  0  0  0  0  0  0
   19.4068   18.6743   23.5188 H   0  0  0  0  0  0  0  0  0  0  0  0
   21.2390   19.4212   22.5905 C   0  0  0  0  0  0  0  0  0  0  0  0
   22.3029   19.4652   22.8622 H   0  0  0  0  0  0  0  0  0  0  0  0
   20.9173   20.4633   22.4560 H   0  0  0  0  0  0  0  0  0  0  0  0
   21.1051   18.6461   21.2535 C   0  0  0  0  0  0  0  0  0  0  0  0
   22.0574   18.7314   20.7120 H   0  0  0  0  0  0  0  0  0  0  0  0
   20.9704   17.5728   21.4462 H   0  0  0  0  0  0  0  0  0  0  0  0
   19.9867   19.1630   20.3123 C   0  0  0  0  0  0  0  0  0  0  0  0
   20.0296   18.5917   19.3744 H   0  0  0  0  0  0  0  0  0  0  0  0
   20.1883   20.2085   20.0401 H   0  0  0  0  0  0  0  0  0  0  0  0
   18.5605   19.0516   20.8945 C   0  0  0  0  0  0  0  0  0  0  0  0
   17.8142   19.3086   20.1317 H   0  0  0  0  0  0  0  0  0  0  0  0
   18.4181   19.7410   21.7356 H   0  0  0  0  0  0  0  0  0  0  0  0
   18.3508   18.0304   21.2381 H   0  0  0  0  0  0  0  0  0  0  0  0
   18.4477   18.9962   26.1587 C   0  0  0  0  0  0  0  0  0  0  0  0
   18.1201   20.0301   26.0302 H   0  0  0  0  0  0  0  0  0  0  0  0
   18.1414   18.4001   25.2968 H   0  0  0  0  0  0  0  0  0  0  0  0
   18.0072   18.5802   27.0676 H   0  0  0  0  0  0  0  0  0  0  0  0
  1  2  1  0  0  0  0
  1  3  1  0  0  0  0
  1  4  1  0  0  0  0
  4  5  1  0  0  0  0
  4  6  1  0  0  0  0
  4  7  1  0  0  0  0
  7  8  1  0  0  0  0
  7  9  1  0  0  0  0
  7 10  1  0  0  0  0
 10 11  1  0  0  0  0
 10 12  1  0  0  0  0
 10 13  1  0  0  0  0
 13 14  1  0  0  0  0
 13 15  1  0  0  0  0
 13 16  1  0  0  0  0
 16 17  1  0  0  0  0
 16 18  1  0  0  0  0
 16 19  1  0  0  0  0
 19 20  1  0  0  0  0
 19 21  1  0  0  0  0
 19 22  1  0  0  0  0
  1 23  1  0  0  0  0
 23 24  1  0  0  0  0
 23 25  1  0  0  0  0
 23 26  1  0  0  0  0
M  END
> <VM2 Rank>
138

> <Conf_Id>
827

> <Probability>
0.02

> <Sum Probability>
99.54

> <Delta G>
3.636

> <G>
79.102

> <E>
46.419

> <-TS>
32.683

> <U+W>
24.957

> <U>
74.399

> <W>
-49.442

> <W(PB)>
-51.683

> <W(SA)>
2.240

> <Valence>
4.964

> <Coulomb>
68.942

> <VdW>
0.494

> <VdW6>
-7.589

> <VdW12>
8.083

> <Bond>
0.249

> <Angle>
1.245

> <Pdih>
3.470

> <Idih>
0.000

> <Tether>
0.000

$$$$
VeraChem MOL file


 26 25  0  0  0  0  0  0  0  0999 V2000     
   20.2397   19.2153   25.8380 N   0  3  0  0  0  0  0  0  0  0  0  0
   21.2490   19.0057   25.8834 H   0  0  0  0  0  0  0  0  0  0  0  0
   19.7835   18.4963   26.4207 H   0  0  0  0  0  0  0  0  0  0  0  0
   19.7490   19.1185   24.4078 C   0  0  0  0  0  0  0  0  0  0  0  0
   20.2526   19.8966   23.8326 H   0  0  0  0  0  0  0  0  0  0  0  0
   18.6773   19.3328   24.4071 H   0  0  0  0  0  0  0  0  0  0  0  0
   19.9988   17.7375   23.7706 C   0  0  0  0  0  0  0  0  0  0  0  0
   21.0681   17.4903   23.8049 H   0  0  0  0  0  0  0  0  0  0  0  0
   19.4866   16.9830   24.3823 H   0  0  0  0  0  0  0  0  0  0  0  0
   19.4748   17.6299   22.3159 C   0  0  0  0  0  0  0  0  0  0  0  0
   18.5119   18.1490   22.2185 H   0  0  0  0  0  0  0  0  0  0  0  0
   19.2561   16.5720   22.1148 H   0  0  0  0  0  0  0  0  0  0  0  0
   20.4699   18.1100   21.2244 C   0  0  0  0  0  0  0  0  0  0  0  0
   21.3851   17.5053   21.2875 H   0  0  0  0  0  0  0  0  0  0  0  0
   20.0370   17.8893   20.2389 H   0  0  0  0  0  0  0  0  0  0  0  0
   20.8614   19.6082   21.2640 C   0  0  0  0  0  0  0  0  0  0  0  0
   21.5692   19.8029   20.4461 H   0  0  0  0  0  0  0  0  0  0  0  0
   21.4105   19.8342   22.1867 H   0  0  0  0  0  0  0  0  0  0  0  0
   19.6562   20.5640   21.1081 C   0  0  0  0  0  0  0  0  0  0  0  0
   19.1086   20.3570   20.1796 H   0  0  0  0  0  0  0  0  0  0  0  0
   19.9952   21.6073   21.0713 H   0  0  0  0  0  0  0  0  0  0  0  0
   18.9537   20.4740   21.9451 H   0  0  0  0  0  0  0  0  0  0  0  0
   19.9581   20.6066   26.3882 C   0  0  0  0  0  0  0  0  0  0  0  0
   18.8822   20.7926   26.3609 H   0  0  0  0  0  0  0  0  0  0  0  0
   20.3163   20.6635   27.4185 H   0  0  0  0  0  0  0  0  0  0  0  0
   20.4775   21.3470   25.7757 H   0  0  0  0  0  0  0  0  0  0  0  0
  1  2  1  0  0  0  0
  1  3  1  0  0  0  0
  1  4  1  0  0  0  0
  4  5  1  0  0  0  0
  4  6  1  0  0  0  0
  4  7  1  0  0  0  0
  7  8  1  0  0  0  0
  7  9  1  0  0  0  0
  7 10  1  0  0  0  0
 10 11  1  0  0  0  0
 10 12  1  0  0  0  0
 10 13  1  0  0  0  0
 13 14  1  0  0  0  0
 13 15  1  0  0  0  0
 13 16  1  0  0  0  0
 16 17  1  0  0  0  0
 16 18  1  0  0  0  0
 16 19  1  0  0  0  0
 19 20  1  0  0  0  0
 19 21  1  0  0  0  0
 19 22  1  0  0  0  0
  1 23  1  0  0  0  0
 23 24  1  0  0  0  0
 23 25  1  0  0  0  0
 23 26  1  0  0  0  0
M  END
> <VM2 Rank>
139

> <Conf_Id>
154

> <Probability>
0.02

> <Sum Probability>
99.55

> <Delta G>
3.640

> <G>
79.106

> <E>
46.122

> <-TS>
32.984

> <U+W>
24.660

> <U>
74.250

> <W>
-49.590

> <W(PB)>
-51.808

> <W(SA)>
2.218

> <Valence>
4.607

> <Coulomb>
69.758

> <VdW>
-0.115

> <VdW6>
-8.153

> <VdW12>
8.038

> <Bond>
0.239

> <Angle>
1.671

> <Pdih>
2.697

> <Idih>
0.000

> <Tether>
0.000

$$$$
VeraChem MOL file


 26 25  0  0  0  0  0  0  0  0999 V2000     
   19.6591   19.1547   25.8173 N   0  3  0  0  0  0  0  0  0  0  0  0
   20.2117   18.5409   26.4359 H   0  0  0  0  0  0  0  0  0  0  0  0
   18.7141   18.7412   25.7933 H   0  0  0  0  0  0  0  0  0  0  0  0
   20.2584   19.1717   24.4259 C   0  0  0  0  0  0  0  0  0  0  0  0
   21.2602   19.6024   24.4988 H   0  0  0  0  0  0  0  0  0  0  0  0
   19.6468   19.8334   23.8111 H   0  0  0  0  0  0  0  0  0  0  0  0
   20.3440   17.7736   23.7828 C   0  0  0  0  0  0  0  0  0  0  0  0
   20.9569   17.1365   24.4343 H   0  0  0  0  0  0  0  0  0  0  0  0
   19.3491   17.3108   23.7440 H   0  0  0  0  0  0  0  0  0  0  0  0
   20.9795   17.7871   22.3692 C   0  0  0  0  0  0  0  0  0  0  0  0
   21.4254   16.7986   22.1916 H   0  0  0  0  0  0  0  0  0  0  0  0
   21.8189   18.4945   22.3356 H   0  0  0  0  0  0  0  0  0  0  0  0
   19.9856   18.0594   21.2072 C   0  0  0  0  0  0  0  0  0  0  0  0
   20.5227   17.9401   20.2561 H   0  0  0  0  0  0  0  0  0  0  0  0
   19.2129   17.2783   21.2104 H   0  0  0  0  0  0  0  0  0  0  0  0
   19.2914   19.4442   21.2085 C   0  0  0  0  0  0  0  0  0  0  0  0
   18.6444   19.5451   22.0889 H   0  0  0  0  0  0  0  0  0  0  0  0
   18.6177   19.4945   20.3417 H   0  0  0  0  0  0  0  0  0  0  0  0
   20.2812   20.6293   21.1303 C   0  0  0  0  0  0  0  0  0  0  0  0
   19.7374   21.5804   21.0624 H   0  0  0  0  0  0  0  0  0  0  0  0
   20.9232   20.5467   20.2437 H   0  0  0  0  0  0  0  0  0  0  0  0
   20.9269   20.6801   22.0149 H   0  0  0  0  0  0  0  0  0  0  0  0
   19.6086   20.5701   26.3758 C   0  0  0  0  0  0  0  0  0  0  0  0
   18.9922   21.1920   25.7231 H   0  0  0  0  0  0  0  0  0  0  0  0
   19.1750   20.5443   27.3780 H   0  0  0  0  0  0  0  0  0  0  0  0
   20.6223   20.9740   26.4228 H   0  0  0  0  0  0  0  0  0  0  0  0
  1  2  1  0  0  0  0
  1  3  1  0  0  0  0
  1  4  1  0  0  0  0
  4  5  1  0  0  0  0
  4  6  1  0  0  0  0
  4  7  1  0  0  0  0
  7  8  1  0  0  0  0
  7  9  1  0  0  0  0
  7 10  1  0  0  0  0
 10 11  1  0  0  0  0
 10 12  1  0  0  0  0
 10 13  1  0  0  0  0
 13 14  1  0  0  0  0
 13 15  1  0  0  0  0
 13 16  1  0  0  0  0
 16 17  1  0  0  0  0
 16 18  1  0  0  0  0
 16 19  1  0  0  0  0
 19 20  1  0  0  0  0
 19 21  1  0  0  0  0
 19 22  1  0  0  0  0
  1 23  1  0  0  0  0
 23 24  1  0  0  0  0
 23 25  1  0  0  0  0
 23 26  1  0  0  0  0
M  END
> <VM2 Rank>
140

> <Conf_Id>
851

> <Probability>
0.02

> <Sum Probability>
99.57

> <Delta G>
3.648

> <G>
79.114

> <E>
46.130

> <-TS>
32.984

> <U+W>
24.668

> <U>
74.251

> <W>
-49.583

> <W(PB)>
-51.813

> <W(SA)>
2.230

> <Valence>
4.607

> <Coulomb>
69.759

> <VdW>
-0.115

> <VdW6>
-8.153

> <VdW12>
8.038

> <Bond>
0.239

> <Angle>
1.670

> <Pdih>
2.698

> <Idih>
0.000

> <Tether>
0.000

$$$$
VeraChem MOL file


 26 25  0  0  0  0  0  0  0  0999 V2000     
   19.4375   18.6217   26.0998 N   0  3  0  0  0  0  0  0  0  0  0  0
   18.8809   17.8150   25.7777 H   0  0  0  0  0  0  0  0  0  0  0  0
   18.9465   18.9653   26.9405 H   0  0  0  0  0  0  0  0  0  0  0  0
   19.4499   19.7093   25.0385 C   0  0  0  0  0  0  0  0  0  0  0  0
   20.0760   20.5276   25.4027 H   0  0  0  0  0  0  0  0  0  0  0  0
   18.4267   20.0817   24.9434 H   0  0  0  0  0  0  0  0  0  0  0  0
   19.9451   19.2464   23.6533 C   0  0  0  0  0  0  0  0  0  0  0  0
   20.9851   18.9033   23.7261 H   0  0  0  0  0  0  0  0  0  0  0  0
   19.3378   18.3929   23.3280 H   0  0  0  0  0  0  0  0  0  0  0  0
   19.8481   20.3848   22.6126 C   0  0  0  0  0  0  0  0  0  0  0  0
   20.3442   21.2787   23.0157 H   0  0  0  0  0  0  0  0  0  0  0  0
   18.7937   20.6596   22.4696 H   0  0  0  0  0  0  0  0  0  0  0  0
   20.4857   20.0540   21.2381 C   0  0  0  0  0  0  0  0  0  0  0  0
   20.3931   20.9492   20.6076 H   0  0  0  0  0  0  0  0  0  0  0  0
   21.5652   19.8848   21.3530 H   0  0  0  0  0  0  0  0  0  0  0  0
   19.8338   18.8651   20.4855 C   0  0  0  0  0  0  0  0  0  0  0  0
   19.8601   19.0775   19.4074 H   0  0  0  0  0  0  0  0  0  0  0  0
   18.7705   18.7819   20.7502 H   0  0  0  0  0  0  0  0  0  0  0  0
   20.5546   17.5171   20.7220 C   0  0  0  0  0  0  0  0  0  0  0  0
   21.6012   17.5699   20.3954 H   0  0  0  0  0  0  0  0  0  0  0  0
   20.0682   16.7165   20.1498 H   0  0  0  0  0  0  0  0  0  0  0  0
   20.5455   17.2224   21.7770 H   0  0  0  0  0  0  0  0  0  0  0  0
   20.8533   18.1916   26.4672 C   0  0  0  0  0  0  0  0  0  0  0  0
   21.4117   19.0609   26.8212 H   0  0  0  0  0  0  0  0  0  0  0  0
   20.8042   17.4385   27.2568 H   0  0  0  0  0  0  0  0  0  0  0  0
   21.3430   17.7693   25.5875 H   0  0  0  0  0  0  0  0  0  0  0  0
  1  2  1  0  0  0  0
  1  3  1  0  0  0  0
  1  4  1  0  0  0  0
  4  5  1  0  0  0  0
  4  6  1  0  0  0  0
  4  7  1  0  0  0  0
  7  8  1  0  0  0  0
  7  9  1  0  0  0  0
  7 10  1  0  0  0  0
 10 11  1  0  0  0  0
 10 12  1  0  0  0  0
 10 13  1  0  0  0  0
 13 14  1  0  0  0  0
 13 15  1  0  0  0  0
 13 16  1  0  0  0  0
 16 17  1  0  0  0  0
 16 18  1  0  0  0  0
 16 19  1  0  0  0  0
 19 20  1  0  0  0  0
 19 21  1  0  0  0  0
 19 22  1  0  0  0  0
  1 23  1  0  0  0  0
 23 24  1  0  0  0  0
 23 25  1  0  0  0  0
 23 26  1  0  0  0  0
M  END
> <VM2 Rank>
141

> <Conf_Id>
1343

> <Probability>
0.01

> <Sum Probability>
99.58

> <Delta G>
3.652

> <G>
79.118

> <E>
46.447

> <-TS>
32.671

> <U+W>
24.985

> <U>
74.475

> <W>
-49.490

> <W(PB)>
-51.738

> <W(SA)>
2.248

> <Valence>
4.983

> <Coulomb>
68.965

> <VdW>
0.526

> <VdW6>
-7.550

> <VdW12>
8.076

> <Bond>
0.247

> <Angle>
1.294

> <Pdih>
3.442

> <Idih>
0.000

> <Tether>
0.000

$$$$
VeraChem MOL file


 26 25  0  0  0  0  0  0  0  0999 V2000     
   19.4725   18.3941   26.0789 N   0  3  0  0  0  0  0  0  0  0  0  0
   19.4801   17.4182   25.7442 H   0  0  0  0  0  0  0  0  0  0  0  0
   18.6935   18.4376   26.7551 H   0  0  0  0  0  0  0  0  0  0  0  0
   19.1970   19.3436   24.9248 C   0  0  0  0  0  0  0  0  0  0  0  0
   19.2348   20.3647   25.3127 H   0  0  0  0  0  0  0  0  0  0  0  0
   18.1780   19.1491   24.5809 H   0  0  0  0  0  0  0  0  0  0  0  0
   20.1638   19.1997   23.7319 C   0  0  0  0  0  0  0  0  0  0  0  0
   21.1873   19.4255   24.0576 H   0  0  0  0  0  0  0  0  0  0  0  0
   20.1622   18.1581   23.3922 H   0  0  0  0  0  0  0  0  0  0  0  0
   19.7737   20.1512   22.5753 C   0  0  0  0  0  0  0  0  0  0  0  0
   19.8101   21.1818   22.9552 H   0  0  0  0  0  0  0  0  0  0  0  0
   18.7324   19.9774   22.2704 H   0  0  0  0  0  0  0  0  0  0  0  0
   20.7130   20.0484   21.3450 C   0  0  0  0  0  0  0  0  0  0  0  0
   20.8110   21.0506   20.9052 H   0  0  0  0  0  0  0  0  0  0  0  0
   21.7263   19.7644   21.6608 H   0  0  0  0  0  0  0  0  0  0  0  0
   20.2169   19.0962   20.2266 C   0  0  0  0  0  0  0  0  0  0  0  0
   20.9176   19.1565   19.3821 H   0  0  0  0  0  0  0  0  0  0  0  0
   19.2494   19.4499   19.8437 H   0  0  0  0  0  0  0  0  0  0  0  0
   20.0879   17.6187   20.6573 C   0  0  0  0  0  0  0  0  0  0  0  0
   19.8639   16.9848   19.7897 H   0  0  0  0  0  0  0  0  0  0  0  0
   19.2732   17.4835   21.3792 H   0  0  0  0  0  0  0  0  0  0  0  0
   21.0201   17.2538   21.1076 H   0  0  0  0  0  0  0  0  0  0  0  0
   20.7833   18.7382   26.7772 C   0  0  0  0  0  0  0  0  0  0  0  0
   20.7387   19.7688   27.1361 H   0  0  0  0  0  0  0  0  0  0  0  0
   20.9271   18.0599   27.6211 H   0  0  0  0  0  0  0  0  0  0  0  0
   21.6093   18.6265   26.0720 H   0  0  0  0  0  0  0  0  0  0  0  0
  1  2  1  0  0  0  0
  1  3  1  0  0  0  0
  1  4  1  0  0  0  0
  4  5  1  0  0  0  0
  4  6  1  0  0  0  0
  4  7  1  0  0  0  0
  7  8  1  0  0  0  0
  7  9  1  0  0  0  0
  7 10  1  0  0  0  0
 10 11  1  0  0  0  0
 10 12  1  0  0  0  0
 10 13  1  0  0  0  0
 13 14  1  0  0  0  0
 13 15  1  0  0  0  0
 13 16  1  0  0  0  0
 16 17  1  0  0  0  0
 16 18  1  0  0  0  0
 16 19  1  0  0  0  0
 19 20  1  0  0  0  0
 19 21  1  0  0  0  0
 19 22  1  0  0  0  0
  1 23  1  0  0  0  0
 23 24  1  0  0  0  0
 23 25  1  0  0  0  0
 23 26  1  0  0  0  0
M  END
> <VM2 Rank>
142

> <Conf_Id>
1616

> <Probability>
0.01

> <Sum Probability>
99.60

> <Delta G>
3.663

> <G>
79.129

> <E>
46.456

> <-TS>
32.673

> <U+W>
24.994

> <U>
74.461

> <W>
-49.467

> <W(PB)>
-51.713

> <W(SA)>
2.246

> <Valence>
4.969

> <Coulomb>
68.965

> <VdW>
0.528

> <VdW6>
-7.525

> <VdW12>
8.053

> <Bond>
0.248

> <Angle>
1.260

> <Pdih>
3.461

> <Idih>
0.000

> <Tether>
0.000

$$$$
VeraChem MOL file


 26 25  0  0  0  0  0  0  0  0999 V2000     
   20.0766   18.6459   26.1961 N   0  3  0  0  0  0  0  0  0  0  0  0
   20.2485   17.6357   26.0769 H   0  0  0  0  0  0  0  0  0  0  0  0
   19.5745   18.7262   27.0947 H   0  0  0  0  0  0  0  0  0  0  0  0
   19.1941   19.1649   25.0731 C   0  0  0  0  0  0  0  0  0  0  0  0
   19.0670   20.2411   25.2145 H   0  0  0  0  0  0  0  0  0  0  0  0
   18.2156   18.6905   25.1840 H   0  0  0  0  0  0  0  0  0  0  0  0
   19.7302   18.8820   23.6550 C   0  0  0  0  0  0  0  0  0  0  0  0
   20.6957   19.3856   23.5279 H   0  0  0  0  0  0  0  0  0  0  0  0
   19.9016   17.8039   23.5383 H   0  0  0  0  0  0  0  0  0  0  0  0
   18.7431   19.3739   22.5722 C   0  0  0  0  0  0  0  0  0  0  0  0
   18.6466   20.4666   22.6364 H   0  0  0  0  0  0  0  0  0  0  0  0
   17.7455   18.9664   22.7879 H   0  0  0  0  0  0  0  0  0  0  0  0
   19.1280   18.9742   21.1240 C   0  0  0  0  0  0  0  0  0  0  0  0
   19.1212   17.8805   21.0191 H   0  0  0  0  0  0  0  0  0  0  0  0
   18.3330   19.3391   20.4589 H   0  0  0  0  0  0  0  0  0  0  0  0
   20.4774   19.5525   20.6243 C   0  0  0  0  0  0  0  0  0  0  0  0
   20.6882   20.5117   21.1173 H   0  0  0  0  0  0  0  0  0  0  0  0
   20.3853   19.7784   19.5526 H   0  0  0  0  0  0  0  0  0  0  0  0
   21.6678   18.5814   20.8046 C   0  0  0  0  0  0  0  0  0  0  0  0
   21.8400   18.3284   21.8564 H   0  0  0  0  0  0  0  0  0  0  0  0
   22.5911   19.0299   20.4158 H   0  0  0  0  0  0  0  0  0  0  0  0
   21.4966   17.6459   20.2564 H   0  0  0  0  0  0  0  0  0  0  0  0
   21.3909   19.4152   26.2676 C   0  0  0  0  0  0  0  0  0  0  0  0
   21.1779   20.4767   26.4118 H   0  0  0  0  0  0  0  0  0  0  0  0
   21.9790   19.0399   27.1080 H   0  0  0  0  0  0  0  0  0  0  0  0
   21.9458   19.2711   25.3384 H   0  0  0  0  0  0  0  0  0  0  0  0
  1  2  1  0  0  0  0
  1  3  1  0  0  0  0
  1  4  1  0  0  0  0
  4  5  1  0  0  0  0
  4  6  1  0  0  0  0
  4  7  1  0  0  0  0
  7  8  1  0  0  0  0
  7  9  1  0  0  0  0
  7 10  1  0  0  0  0
 10 11  1  0  0  0  0
 10 12  1  0  0  0  0
 10 13  1  0  0  0  0
 13 14  1  0  0  0  0
 13 15  1  0  0  0  0
 13 16  1  0  0  0  0
 16 17  1  0  0  0  0
 16 18  1  0  0  0  0
 16 19  1  0  0  0  0
 19 20  1  0  0  0  0
 19 21  1  0  0  0  0
 19 22  1  0  0  0  0
  1 23  1  0  0  0  0
 23 24  1  0  0  0  0
 23 25  1  0  0  0  0
 23 26  1  0  0  0  0
M  END
> <VM2 Rank>
143

> <Conf_Id>
1258

> <Probability>
0.01

> <Sum Probability>
99.61

> <Delta G>
3.683

> <G>
79.149

> <E>
46.473

> <-TS>
32.676

> <U+W>
25.012

> <U>
74.458

> <W>
-49.446

> <W(PB)>
-51.669

> <W(SA)>
2.223

> <Valence>
4.984

> <Coulomb>
68.955

> <VdW>
0.518

> <VdW6>
-7.574

> <VdW12>
8.093

> <Bond>
0.249

> <Angle>
1.288

> <Pdih>
3.448

> <Idih>
0.000

> <Tether>
0.000

$$$$
VeraChem MOL file


 26 25  0  0  0  0  0  0  0  0999 V2000     
   19.9087   18.6287   26.1901 N   0  3  0  0  0  0  0  0  0  0  0  0
   20.3202   18.8018   27.1210 H   0  0  0  0  0  0  0  0  0  0  0  0
   19.9525   17.6054   26.0662 H   0  0  0  0  0  0  0  0  0  0  0  0
   20.7449   19.3229   25.1280 C   0  0  0  0  0  0  0  0  0  0  0  0
   21.7886   19.0546   25.3105 H   0  0  0  0  0  0  0  0  0  0  0  0
   20.6423   20.4016   25.2704 H   0  0  0  0  0  0  0  0  0  0  0  0
   20.3774   18.9481   23.6779 C   0  0  0  0  0  0  0  0  0  0  0  0
   20.4353   17.8584   23.5571 H   0  0  0  0  0  0  0  0  0  0  0  0
   19.3415   19.2477   23.4800 H   0  0  0  0  0  0  0  0  0  0  0  0
   21.3184   19.6366   22.6635 C   0  0  0  0  0  0  0  0  0  0  0  0
   22.3601   19.4371   22.9514 H   0  0  0  0  0  0  0  0  0  0  0  0
   21.1880   20.7258   22.7264 H   0  0  0  0  0  0  0  0  0  0  0  0
   21.1245   19.1779   21.1947 C   0  0  0  0  0  0  0  0  0  0  0  0
   21.8742   19.7003   20.5844 H   0  0  0  0  0  0  0  0  0  0  0  0
   21.3591   18.1088   21.0984 H   0  0  0  0  0  0  0  0  0  0  0  0
   19.7247   19.4757   20.5975 C   0  0  0  0  0  0  0  0  0  0  0  0
   19.8442   19.7230   19.5333 H   0  0  0  0  0  0  0  0  0  0  0  0
   19.2907   20.3692   21.0676 H   0  0  0  0  0  0  0  0  0  0  0  0
   18.7448   18.2832   20.7011 C   0  0  0  0  0  0  0  0  0  0  0  0
   19.1391   17.4053   20.1730 H   0  0  0  0  0  0  0  0  0  0  0  0
   17.7796   18.5391   20.2453 H   0  0  0  0  0  0  0  0  0  0  0  0
   18.5538   17.9935   21.7401 H   0  0  0  0  0  0  0  0  0  0  0  0
   18.4646   19.1169   26.1641 C   0  0  0  0  0  0  0  0  0  0  0  0
   18.0165   18.8707   25.1994 H   0  0  0  0  0  0  0  0  0  0  0  0
   17.9068   18.6247   26.9639 H   0  0  0  0  0  0  0  0  0  0  0  0
   18.4488   20.1985   26.3154 H   0  0  0  0  0  0  0  0  0  0  0  0
  1  2  1  0  0  0  0
  1  3  1  0  0  0  0
  1  4  1  0  0  0  0
  4  5  1  0  0  0  0
  4  6  1  0  0  0  0
  4  7  1  0  0  0  0
  7  8  1  0  0  0  0
  7  9  1  0  0  0  0
  7 10  1  0  0  0  0
 10 11  1  0  0  0  0
 10 12  1  0  0  0  0
 10 13  1  0  0  0  0
 13 14  1  0  0  0  0
 13 15  1  0  0  0  0
 13 16  1  0  0  0  0
 16 17  1  0  0  0  0
 16 18  1  0  0  0  0
 16 19  1  0  0  0  0
 19 20  1  0  0  0  0
 19 21  1  0  0  0  0
 19 22  1  0  0  0  0
  1 23  1  0  0  0  0
 23 24  1  0  0  0  0
 23 25  1  0  0  0  0
 23 26  1  0  0  0  0
M  END
> <VM2 Rank>
144

> <Conf_Id>
768

> <Probability>
0.01

> <Sum Probability>
99.63

> <Delta G>
3.684

> <G>
79.150

> <E>
46.475

> <-TS>
32.676

> <U+W>
25.013

> <U>
74.458

> <W>
-49.445

> <W(PB)>
-51.689

> <W(SA)>
2.244

> <Valence>
4.984

> <Coulomb>
68.956

> <VdW>
0.518

> <VdW6>
-7.574

> <VdW12>
8.093

> <Bond>
0.249

> <Angle>
1.288

> <Pdih>
3.448

> <Idih>
0.000

> <Tether>
0.000

$$$$
VeraChem MOL file


 26 25  0  0  0  0  0  0  0  0999 V2000     
   20.5845   19.2780   25.4313 N   0  3  0  0  0  0  0  0  0  0  0  0
   21.1080   19.6032   24.6061 H   0  0  0  0  0  0  0  0  0  0  0  0
   21.1254   18.4834   25.8066 H   0  0  0  0  0  0  0  0  0  0  0  0
   19.1986   18.8173   25.0225 C   0  0  0  0  0  0  0  0  0  0  0  0
   18.6364   19.6844   24.6671 H   0  0  0  0  0  0  0  0  0  0  0  0
   18.7100   18.4430   25.9257 H   0  0  0  0  0  0  0  0  0  0  0  0
   19.1858   17.7097   23.9479 C   0  0  0  0  0  0  0  0  0  0  0  0
   19.9518   16.9561   24.1740 H   0  0  0  0  0  0  0  0  0  0  0  0
   18.2217   17.1886   24.0166 H   0  0  0  0  0  0  0  0  0  0  0  0
   19.3452   18.2249   22.4944 C   0  0  0  0  0  0  0  0  0  0  0  0
   18.5315   18.9283   22.2723 H   0  0  0  0  0  0  0  0  0  0  0  0
   19.2105   17.3739   21.8126 H   0  0  0  0  0  0  0  0  0  0  0  0
   20.7113   18.8933   22.1987 C   0  0  0  0  0  0  0  0  0  0  0  0
   20.7828   19.8513   22.7289 H   0  0  0  0  0  0  0  0  0  0  0  0
   21.5186   18.2531   22.5803 H   0  0  0  0  0  0  0  0  0  0  0  0
   20.9549   19.1425   20.6905 C   0  0  0  0  0  0  0  0  0  0  0  0
   20.9196   18.1889   20.1452 H   0  0  0  0  0  0  0  0  0  0  0  0
   21.9729   19.5346   20.5567 H   0  0  0  0  0  0  0  0  0  0  0  0
   19.9505   20.1365   20.0641 C   0  0  0  0  0  0  0  0  0  0  0  0
   20.2151   20.3428   19.0189 H   0  0  0  0  0  0  0  0  0  0  0  0
   19.9505   21.0919   20.6048 H   0  0  0  0  0  0  0  0  0  0  0  0
   18.9290   19.7364   20.0728 H   0  0  0  0  0  0  0  0  0  0  0  0
   20.4771   20.3878   26.4676 C   0  0  0  0  0  0  0  0  0  0  0  0
   19.9287   21.2288   26.0378 H   0  0  0  0  0  0  0  0  0  0  0  0
   19.9470   20.0097   27.3445 H   0  0  0  0  0  0  0  0  0  0  0  0
   21.4810   20.7093   26.7538 H   0  0  0  0  0  0  0  0  0  0  0  0
  1  2  1  0  0  0  0
  1  3  1  0  0  0  0
  1  4  1  0  0  0  0
  4  5  1  0  0  0  0
  4  6  1  0  0  0  0
  4  7  1  0  0  0  0
  7  8  1  0  0  0  0
  7  9  1  0  0  0  0
  7 10  1  0  0  0  0
 10 11  1  0  0  0  0
 10 12  1  0  0  0  0
 10 13  1  0  0  0  0
 13 14  1  0  0  0  0
 13 15  1  0  0  0  0
 13 16  1  0  0  0  0
 16 17  1  0  0  0  0
 16 18  1  0  0  0  0
 16 19  1  0  0  0  0
 19 20  1  0  0  0  0
 19 21  1  0  0  0  0
 19 22  1  0  0  0  0
  1 23  1  0  0  0  0
 23 24  1  0  0  0  0
 23 25  1  0  0  0  0
 23 26  1  0  0  0  0
M  END
> <VM2 Rank>
145

> <Conf_Id>
1600

> <Probability>
0.01

> <Sum Probability>
99.64

> <Delta G>
3.706

> <G>
79.172

> <E>
46.700

> <-TS>
32.472

> <U+W>
25.238

> <U>
74.474

> <W>
-49.236

> <W(PB)>
-51.484

> <W(SA)>
2.247

> <Valence>
3.793

> <Coulomb>
70.589

> <VdW>
0.093

> <VdW6>
-7.603

> <VdW12>
7.696

> <Bond>
0.211

> <Angle>
1.117

> <Pdih>
2.465

> <Idih>
0.000

> <Tether>
0.000

$$$$
VeraChem MOL file


 26 25  0  0  0  0  0  0  0  0999 V2000     
   19.3383   19.1466   25.3872 N   0  3  0  0  0  0  0  0  0  0  0  0
   18.9500   18.2540   25.7298 H   0  0  0  0  0  0  0  0  0  0  0  0
   18.8175   19.3615   24.5251 H   0  0  0  0  0  0  0  0  0  0  0  0
   20.8149   18.9877   25.0797 C   0  0  0  0  0  0  0  0  0  0  0  0
   21.3065   18.7168   26.0176 H   0  0  0  0  0  0  0  0  0  0  0  0
   21.2076   19.9555   24.7580 H   0  0  0  0  0  0  0  0  0  0  0  0
   21.1332   17.9150   24.0167 C   0  0  0  0  0  0  0  0  0  0  0  0
   22.1775   17.6057   24.1565 H   0  0  0  0  0  0  0  0  0  0  0  0
   20.5271   17.0167   24.1943 H   0  0  0  0  0  0  0  0  0  0  0  0
   20.9720   18.3964   22.5520 C   0  0  0  0  0  0  0  0  0  0  0  0
   21.3283   17.5972   21.8875 H   0  0  0  0  0  0  0  0  0  0  0  0
   21.6348   19.2555   22.3821 H   0  0  0  0  0  0  0  0  0  0  0  0
   19.5207   18.7677   22.1566 C   0  0  0  0  0  0  0  0  0  0  0  0
   18.8398   17.9705   22.4856 H   0  0  0  0  0  0  0  0  0  0  0  0
   19.2143   19.6858   22.6734 H   0  0  0  0  0  0  0  0  0  0  0  0
   19.3365   18.9718   20.6333 C   0  0  0  0  0  0  0  0  0  0  0  0
   18.2711   19.1441   20.4257 H   0  0  0  0  0  0  0  0  0  0  0  0
   19.6078   18.0506   20.0988 H   0  0  0  0  0  0  0  0  0  0  0  0
   20.1529   20.1580   20.0713 C   0  0  0  0  0  0  0  0  0  0  0  0
   21.2322   19.9795   20.1544 H   0  0  0  0  0  0  0  0  0  0  0  0
   19.9160   21.0883   20.6037 H   0  0  0  0  0  0  0  0  0  0  0  0
   19.9248   20.3123   19.0087 H   0  0  0  0  0  0  0  0  0  0  0  0
   19.1395   20.2468   26.4202 C   0  0  0  0  0  0  0  0  0  0  0  0
   19.6742   19.9812   27.3348 H   0  0  0  0  0  0  0  0  0  0  0  0
   19.5294   21.1867   26.0234 H   0  0  0  0  0  0  0  0  0  0  0  0
   18.0732   20.3501   26.6332 H   0  0  0  0  0  0  0  0  0  0  0  0
  1  2  1  0  0  0  0
  1  3  1  0  0  0  0
  1  4  1  0  0  0  0
  4  5  1  0  0  0  0
  4  6  1  0  0  0  0
  4  7  1  0  0  0  0
  7  8  1  0  0  0  0
  7  9  1  0  0  0  0
  7 10  1  0  0  0  0
 10 11  1  0  0  0  0
 10 12  1  0  0  0  0
 10 13  1  0  0  0  0
 13 14  1  0  0  0  0
 13 15  1  0  0  0  0
 13 16  1  0  0  0  0
 16 17  1  0  0  0  0
 16 18  1  0  0  0  0
 16 19  1  0  0  0  0
 19 20  1  0  0  0  0
 19 21  1  0  0  0  0
 19 22  1  0  0  0  0
  1 23  1  0  0  0  0
 23 24  1  0  0  0  0
 23 25  1  0  0  0  0
 23 26  1  0  0  0  0
M  END
> <VM2 Rank>
146

> <Conf_Id>
1100

> <Probability>
0.01

> <Sum Probability>
99.65

> <Delta G>
3.723

> <G>
79.189

> <E>
46.718

> <-TS>
32.472

> <U+W>
25.256

> <U>
74.474

> <W>
-49.219

> <W(PB)>
-51.462

> <W(SA)>
2.244

> <Valence>
3.793

> <Coulomb>
70.589

> <VdW>
0.093

> <VdW6>
-7.603

> <VdW12>
7.696

> <Bond>
0.211

> <Angle>
1.117

> <Pdih>
2.465

> <Idih>
0.000

> <Tether>
0.000

$$$$
VeraChem MOL file


 26 25  0  0  0  0  0  0  0  0999 V2000     
   19.5415   19.8260   25.4874 N   0  3  0  0  0  0  0  0  0  0  0  0
   18.8939   20.2185   26.1891 H   0  0  0  0  0  0  0  0  0  0  0  0
   19.3765   20.3770   24.6326 H   0  0  0  0  0  0  0  0  0  0  0  0
   19.1964   18.3677   25.2382 C   0  0  0  0  0  0  0  0  0  0  0  0
   18.1236   18.3172   25.0355 H   0  0  0  0  0  0  0  0  0  0  0  0
   19.3840   17.8280   26.1699 H   0  0  0  0  0  0  0  0  0  0  0  0
   19.9561   17.6691   24.0856 C   0  0  0  0  0  0  0  0  0  0  0  0
   21.0377   17.6791   24.2718 H   0  0  0  0  0  0  0  0  0  0  0  0
   19.6628   16.6111   24.1036 H   0  0  0  0  0  0  0  0  0  0  0  0
   19.6397   18.2305   22.6752 C   0  0  0  0  0  0  0  0  0  0  0  0
   18.5756   18.4956   22.6087 H   0  0  0  0  0  0  0  0  0  0  0  0
   19.7986   17.4216   21.9501 H   0  0  0  0  0  0  0  0  0  0  0  0
   20.5234   19.4380   22.2682 C   0  0  0  0  0  0  0  0  0  0  0  0
   20.4345   20.2383   23.0105 H   0  0  0  0  0  0  0  0  0  0  0  0
   21.5802   19.1374   22.2690 H   0  0  0  0  0  0  0  0  0  0  0  0
   20.1589   20.0278   20.8839 C   0  0  0  0  0  0  0  0  0  0  0  0
   20.7542   20.9373   20.7212 H   0  0  0  0  0  0  0  0  0  0  0  0
   19.1068   20.3454   20.8802 H   0  0  0  0  0  0  0  0  0  0  0  0
   20.4117   19.0532   19.7110 C   0  0  0  0  0  0  0  0  0  0  0  0
   19.7458   18.1827   19.7583 H   0  0  0  0  0  0  0  0  0  0  0  0
   21.4490   18.6941   19.7119 H   0  0  0  0  0  0  0  0  0  0  0  0
   20.2311   19.5533   18.7507 H   0  0  0  0  0  0  0  0  0  0  0  0
   20.9803   19.9778   25.9675 C   0  0  0  0  0  0  0  0  0  0  0  0
   21.6591   19.6115   25.1948 H   0  0  0  0  0  0  0  0  0  0  0  0
   21.1821   21.0330   26.1643 H   0  0  0  0  0  0  0  0  0  0  0  0
   21.1151   19.3993   26.8840 H   0  0  0  0  0  0  0  0  0  0  0  0
  1  2  1  0  0  0  0
  1  3  1  0  0  0  0
  1  4  1  0  0  0  0
  4  5  1  0  0  0  0
  4  6  1  0  0  0  0
  4  7  1  0  0  0  0
  7  8  1  0  0  0  0
  7  9  1  0  0  0  0
  7 10  1  0  0  0  0
 10 11  1  0  0  0  0
 10 12  1  0  0  0  0
 10 13  1  0  0  0  0
 13 14  1  0  0  0  0
 13 15  1  0  0  0  0
 13 16  1  0  0  0  0
 16 17  1  0  0  0  0
 16 18  1  0  0  0  0
 16 19  1  0  0  0  0
 19 20  1  0  0  0  0
 19 21  1  0  0  0  0
 19 22  1  0  0  0  0
  1 23  1  0  0  0  0
 23 24  1  0  0  0  0
 23 25  1  0  0  0  0
 23 26  1  0  0  0  0
M  END
> <VM2 Rank>
147

> <Conf_Id>
1079

> <Probability>
0.01

> <Sum Probability>
99.67

> <Delta G>
3.726

> <G>
79.192

> <E>
46.516

> <-TS>
32.676

> <U+W>
25.054

> <U>
75.034

> <W>
-49.980

> <W(PB)>
-52.181

> <W(SA)>
2.201

> <Valence>
4.542

> <Coulomb>
70.171

> <VdW>
0.321

> <VdW6>
-8.485

> <VdW12>
8.806

> <Bond>
0.270

> <Angle>
1.463

> <Pdih>
2.809

> <Idih>
0.000

> <Tether>
0.000

$$$$
VeraChem MOL file


 26 25  0  0  0  0  0  0  0  0999 V2000     
   20.7158   18.9877   25.8418 N   0  3  0  0  0  0  0  0  0  0  0  0
   21.7085   18.9831   26.1248 H   0  0  0  0  0  0  0  0  0  0  0  0
   20.2684   18.2659   26.4276 H   0  0  0  0  0  0  0  0  0  0  0  0
   20.6031   18.6171   24.3729 C   0  0  0  0  0  0  0  0  0  0  0  0
   21.2098   17.7215   24.2167 H   0  0  0  0  0  0  0  0  0  0  0  0
   21.0452   19.4279   23.7922 H   0  0  0  0  0  0  0  0  0  0  0  0
   19.1628   18.3329   23.8944 C   0  0  0  0  0  0  0  0  0  0  0  0
   18.7504   17.5293   24.5187 H   0  0  0  0  0  0  0  0  0  0  0  0
   18.5214   19.2088   24.0549 H   0  0  0  0  0  0  0  0  0  0  0  0
   19.0883   17.8918   22.4104 C   0  0  0  0  0  0  0  0  0  0  0  0
   18.1870   17.2755   22.2872 H   0  0  0  0  0  0  0  0  0  0  0  0
   19.9293   17.2289   22.1670 H   0  0  0  0  0  0  0  0  0  0  0  0
   18.9938   19.0567   21.3876 C   0  0  0  0  0  0  0  0  0  0  0  0
   18.8448   18.6291   20.3865 H   0  0  0  0  0  0  0  0  0  0  0  0
   18.0873   19.6408   21.5978 H   0  0  0  0  0  0  0  0  0  0  0  0
   20.2043   20.0217   21.3351 C   0  0  0  0  0  0  0  0  0  0  0  0
   20.3075   20.5553   22.2883 H   0  0  0  0  0  0  0  0  0  0  0  0
   19.9966   20.7975   20.5849 H   0  0  0  0  0  0  0  0  0  0  0  0
   21.5324   19.3229   20.9638 C   0  0  0  0  0  0  0  0  0  0  0  0
   22.3418   20.0587   20.8728 H   0  0  0  0  0  0  0  0  0  0  0  0
   21.4456   18.8001   20.0025 H   0  0  0  0  0  0  0  0  0  0  0  0
   21.8341   18.5915   21.7229 H   0  0  0  0  0  0  0  0  0  0  0  0
   20.1075   20.3594   26.1110 C   0  0  0  0  0  0  0  0  0  0  0  0
   20.2385   20.6070   27.1668 H   0  0  0  0  0  0  0  0  0  0  0  0
   20.6133   21.1038   25.4923 H   0  0  0  0  0  0  0  0  0  0  0  0
   19.0431   20.3373   25.8689 H   0  0  0  0  0  0  0  0  0  0  0  0
  1  2  1  0  0  0  0
  1  3  1  0  0  0  0
  1  4  1  0  0  0  0
  4  5  1  0  0  0  0
  4  6  1  0  0  0  0
  4  7  1  0  0  0  0
  7  8  1  0  0  0  0
  7  9  1  0  0  0  0
  7 10  1  0  0  0  0
 10 11  1  0  0  0  0
 10 12  1  0  0  0  0
 10 13  1  0  0  0  0
 13 14  1  0  0  0  0
 13 15  1  0  0  0  0
 13 16  1  0  0  0  0
 16 17  1  0  0  0  0
 16 18  1  0  0  0  0
 16 19  1  0  0  0  0
 19 20  1  0  0  0  0
 19 21  1  0  0  0  0
 19 22  1  0  0  0  0
  1 23  1  0  0  0  0
 23 24  1  0  0  0  0
 23 25  1  0  0  0  0
 23 26  1  0  0  0  0
M  END
> <VM2 Rank>
148

> <Conf_Id>
839

> <Probability>
0.01

> <Sum Probability>
99.68

> <Delta G>
3.751

> <G>
79.217

> <E>
46.082

> <-TS>
33.135

> <U+W>
24.621

> <U>
74.631

> <W>
-50.010

> <W(PB)>
-52.190

> <W(SA)>
2.180

> <Valence>
4.879

> <Coulomb>
69.648

> <VdW>
0.103

> <VdW6>
-8.910

> <VdW12>
9.013

> <Bond>
0.274

> <Angle>
1.756

> <Pdih>
2.849

> <Idih>
0.000

> <Tether>
0.000

$$$$
VeraChem MOL file


 26 25  0  0  0  0  0  0  0  0999 V2000     
   19.7293   18.9032   25.9326 N   0  3  0  0  0  0  0  0  0  0  0  0
   20.4450   18.2196   26.2219 H   0  0  0  0  0  0  0  0  0  0  0  0
   19.0162   18.8711   26.6782 H   0  0  0  0  0  0  0  0  0  0  0  0
   19.0948   18.4785   24.6169 C   0  0  0  0  0  0  0  0  0  0  0  0
   18.6219   19.3514   24.1610 H   0  0  0  0  0  0  0  0  0  0  0  0
   18.3035   17.7689   24.8717 H   0  0  0  0  0  0  0  0  0  0  0  0
   20.0437   17.7853   23.6118 C   0  0  0  0  0  0  0  0  0  0  0  0
   20.5472   16.9484   24.1130 H   0  0  0  0  0  0  0  0  0  0  0  0
   19.4344   17.3305   22.8205 H   0  0  0  0  0  0  0  0  0  0  0  0
   21.1081   18.7066   22.9619 C   0  0  0  0  0  0  0  0  0  0  0  0
   21.6987   18.1162   22.2489 H   0  0  0  0  0  0  0  0  0  0  0  0
   21.8254   19.0289   23.7271 H   0  0  0  0  0  0  0  0  0  0  0  0
   20.5351   19.9572   22.2414 C   0  0  0  0  0  0  0  0  0  0  0  0
   20.0680   20.6235   22.9780 H   0  0  0  0  0  0  0  0  0  0  0  0
   21.3702   20.5291   21.8139 H   0  0  0  0  0  0  0  0  0  0  0  0
   19.5079   19.6582   21.1199 C   0  0  0  0  0  0  0  0  0  0  0  0
   19.1623   20.6126   20.6986 H   0  0  0  0  0  0  0  0  0  0  0  0
   18.6159   19.1754   21.5408 H   0  0  0  0  0  0  0  0  0  0  0  0
   20.0815   18.7896   19.9773 C   0  0  0  0  0  0  0  0  0  0  0  0
   19.3457   18.6813   19.1700 H   0  0  0  0  0  0  0  0  0  0  0  0
   20.3381   17.7821   20.3274 H   0  0  0  0  0  0  0  0  0  0  0  0
   20.9839   19.2455   19.5500 H   0  0  0  0  0  0  0  0  0  0  0  0
   20.3076   20.3114   25.8552 C   0  0  0  0  0  0  0  0  0  0  0  0
   20.7121   20.5842   26.8324 H   0  0  0  0  0  0  0  0  0  0  0  0
   21.1025   20.3420   25.1096 H   0  0  0  0  0  0  0  0  0  0  0  0
   19.5141   21.0089   25.5786 H   0  0  0  0  0  0  0  0  0  0  0  0
  1  2  1  0  0  0  0
  1  3  1  0  0  0  0
  1  4  1  0  0  0  0
  4  5  1  0  0  0  0
  4  6  1  0  0  0  0
  4  7  1  0  0  0  0
  7  8  1  0  0  0  0
  7  9  1  0  0  0  0
  7 10  1  0  0  0  0
 10 11  1  0  0  0  0
 10 12  1  0  0  0  0
 10 13  1  0  0  0  0
 13 14  1  0  0  0  0
 13 15  1  0  0  0  0
 13 16  1  0  0  0  0
 16 17  1  0  0  0  0
 16 18  1  0  0  0  0
 16 19  1  0  0  0  0
 19 20  1  0  0  0  0
 19 21  1  0  0  0  0
 19 22  1  0  0  0  0
  1 23  1  0  0  0  0
 23 24  1  0  0  0  0
 23 25  1  0  0  0  0
 23 26  1  0  0  0  0
M  END
> <VM2 Rank>
149

> <Conf_Id>
543

> <Probability>
0.01

> <Sum Probability>
99.69

> <Delta G>
3.754

> <G>
79.220

> <E>
45.809

> <-TS>
33.411

> <U+W>
24.347

> <U>
74.535

> <W>
-50.187

> <W(PB)>
-52.346

> <W(SA)>
2.159

> <Valence>
4.948

> <Coulomb>
69.618

> <VdW>
-0.032

> <VdW6>
-9.810

> <VdW12>
9.778

> <Bond>
0.300

> <Angle>
1.880

> <Pdih>
2.768

> <Idih>
0.000

> <Tether>
0.000

$$$$
VeraChem MOL file


 26 25  0  0  0  0  0  0  0  0999 V2000     
   20.2408   19.8985   25.5119 N   0  3  0  0  0  0  0  0  0  0  0  0
   20.3487   20.4777   24.6667 H   0  0  0  0  0  0  0  0  0  0  0  0
   20.7435   20.4104   26.2542 H   0  0  0  0  0  0  0  0  0  0  0  0
   20.8937   18.5436   25.2983 C   0  0  0  0  0  0  0  0  0  0  0  0
   20.7559   17.9703   26.2185 H   0  0  0  0  0  0  0  0  0  0  0  0
   21.9656   18.7154   25.1715 H   0  0  0  0  0  0  0  0  0  0  0  0
   20.3759   17.7126   24.1006 C   0  0  0  0  0  0  0  0  0  0  0  0
   20.8778   16.7371   24.1466 H   0  0  0  0  0  0  0  0  0  0  0  0
   19.3048   17.4992   24.2106 H   0  0  0  0  0  0  0  0  0  0  0  0
   20.6681   18.3371   22.7116 C   0  0  0  0  0  0  0  0  0  0  0  0
   20.7299   17.5181   21.9831 H   0  0  0  0  0  0  0  0  0  0  0  0
   21.6572   18.8155   22.7179 H   0  0  0  0  0  0  0  0  0  0  0  0
   19.5860   19.3403   22.2350 C   0  0  0  0  0  0  0  0  0  0  0  0
   18.6161   18.8290   22.1636 H   0  0  0  0  0  0  0  0  0  0  0  0
   19.4561   20.1361   22.9760 H   0  0  0  0  0  0  0  0  0  0  0  0
   19.9179   20.0030   20.8757 C   0  0  0  0  0  0  0  0  0  0  0  0
   20.8797   20.5302   20.9439 H   0  0  0  0  0  0  0  0  0  0  0  0
   19.1612   20.7717   20.6649 H   0  0  0  0  0  0  0  0  0  0  0  0
   19.9543   19.0060   19.6948 C   0  0  0  0  0  0  0  0  0  0  0  0
   20.0953   19.5399   18.7461 H   0  0  0  0  0  0  0  0  0  0  0  0
   19.0155   18.4413   19.6252 H   0  0  0  0  0  0  0  0  0  0  0  0
   20.7799   18.2908   19.7951 H   0  0  0  0  0  0  0  0  0  0  0  0
   18.7714   19.7490   25.8892 C   0  0  0  0  0  0  0  0  0  0  0  0
   18.6941   19.1487   26.7983 H   0  0  0  0  0  0  0  0  0  0  0  0
   18.3444   20.7391   26.0635 H   0  0  0  0  0  0  0  0  0  0  0  0
   18.2377   19.2568   25.0736 H   0  0  0  0  0  0  0  0  0  0  0  0
  1  2  1  0  0  0  0
  1  3  1  0  0  0  0
  1  4  1  0  0  0  0
  4  5  1  0  0  0  0
  4  6  1  0  0  0  0
  4  7  1  0  0  0  0
  7  8  1  0  0  0  0
  7  9  1  0  0  0  0
  7 10  1  0  0  0  0
 10 11  1  0  0  0  0
 10 12  1  0  0  0  0
 10 13  1  0  0  0  0
 13 14  1  0  0  0  0
 13 15  1  0  0  0  0
 13 16  1  0  0  0  0
 16 17  1  0  0  0  0
 16 18  1  0  0  0  0
 16 19  1  0  0  0  0
 19 20  1  0  0  0  0
 19 21  1  0  0  0  0
 19 22  1  0  0  0  0
  1 23  1  0  0  0  0
 23 24  1  0  0  0  0
 23 25  1  0  0  0  0
 23 26  1  0  0  0  0
M  END
> <VM2 Rank>
150

> <Conf_Id>
527

> <Probability>
0.01

> <Sum Probability>
99.70

> <Delta G>
3.761

> <G>
79.227

> <E>
46.549

> <-TS>
32.678

> <U+W>
25.087

> <U>
75.034

> <W>
-49.946

> <W(PB)>
-52.157

> <W(SA)>
2.211

> <Valence>
4.542

> <Coulomb>
70.170

> <VdW>
0.321

> <VdW6>
-8.485

> <VdW12>
8.807

> <Bond>
0.270

> <Angle>
1.462

> <Pdih>
2.810

> <Idih>
0.000

> <Tether>
0.000

$$$$
VeraChem MOL file


 26 25  0  0  0  0  0  0  0  0999 V2000     
   19.2411   18.8351   25.7896 N   0  3  0  0  0  0  0  0  0  0  0  0
   19.7847   18.2161   26.4106 H   0  0  0  0  0  0  0  0  0  0  0  0
   18.2530   18.6254   26.0026 H   0  0  0  0  0  0  0  0  0  0  0  0
   19.5296   18.5058   24.3350 C   0  0  0  0  0  0  0  0  0  0  0  0
   18.9726   19.2131   23.7188 H   0  0  0  0  0  0  0  0  0  0  0  0
   19.1315   17.5061   24.1435 H   0  0  0  0  0  0  0  0  0  0  0  0
   21.0274   18.5257   23.9604 C   0  0  0  0  0  0  0  0  0  0  0  0
   21.4632   19.5132   24.1589 H   0  0  0  0  0  0  0  0  0  0  0  0
   21.5508   17.8190   24.6178 H   0  0  0  0  0  0  0  0  0  0  0  0
   21.2941   18.1199   22.4885 C   0  0  0  0  0  0  0  0  0  0  0  0
   20.6255   17.3008   22.1917 H   0  0  0  0  0  0  0  0  0  0  0  0
   22.3087   17.7017   22.4331 H   0  0  0  0  0  0  0  0  0  0  0  0
   21.2198   19.2868   21.4664 C   0  0  0  0  0  0  0  0  0  0  0  0
   21.9709   20.0423   21.7352 H   0  0  0  0  0  0  0  0  0  0  0  0
   21.5226   18.9059   20.4812 H   0  0  0  0  0  0  0  0  0  0  0  0
   19.8444   19.9845   21.3224 C   0  0  0  0  0  0  0  0  0  0  0  0
   19.9411   20.7918   20.5831 H   0  0  0  0  0  0  0  0  0  0  0  0
   19.5680   20.4788   22.2623 H   0  0  0  0  0  0  0  0  0  0  0  0
   18.7163   19.0318   20.8643 C   0  0  0  0  0  0  0  0  0  0  0  0
   18.9751   18.5449   19.9151 H   0  0  0  0  0  0  0  0  0  0  0  0
   17.7821   19.5874   20.7117 H   0  0  0  0  0  0  0  0  0  0  0  0
   18.5182   18.2486   21.6056 H   0  0  0  0  0  0  0  0  0  0  0  0
   19.5353   20.3004   26.0904 C   0  0  0  0  0  0  0  0  0  0  0  0
   18.9323   20.9298   25.4324 H   0  0  0  0  0  0  0  0  0  0  0  0
   19.2829   20.5085   27.1326 H   0  0  0  0  0  0  0  0  0  0  0  0
   20.5959   20.4984   25.9234 H   0  0  0  0  0  0  0  0  0  0  0  0
  1  2  1  0  0  0  0
  1  3  1  0  0  0  0
  1  4  1  0  0  0  0
  4  5  1  0  0  0  0
  4  6  1  0  0  0  0
  4  7  1  0  0  0  0
  7  8  1  0  0  0  0
  7  9  1  0  0  0  0
  7 10  1  0  0  0  0
 10 11  1  0  0  0  0
 10 12  1  0  0  0  0
 10 13  1  0  0  0  0
 13 14  1  0  0  0  0
 13 15  1  0  0  0  0
 13 16  1  0  0  0  0
 16 17  1  0  0  0  0
 16 18  1  0  0  0  0
 16 19  1  0  0  0  0
 19 20  1  0  0  0  0
 19 21  1  0  0  0  0
 19 22  1  0  0  0  0
  1 23  1  0  0  0  0
 23 24  1  0  0  0  0
 23 25  1  0  0  0  0
 23 26  1  0  0  0  0
M  END
> <VM2 Rank>
151

> <Conf_Id>
1584

> <Probability>
0.01

> <Sum Probability>
99.72

> <Delta G>
3.788

> <G>
79.254

> <E>
46.119

> <-TS>
33.135

> <U+W>
24.657

> <U>
74.631

> <W>
-49.974

> <W(PB)>
-52.194

> <W(SA)>
2.220

> <Valence>
4.880

> <Coulomb>
69.648

> <VdW>
0.103

> <VdW6>
-8.910

> <VdW12>
9.013

> <Bond>
0.274

> <Angle>
1.756

> <Pdih>
2.850

> <Idih>
0.000

> <Tether>
0.000

$$$$
VeraChem MOL file


 26 25  0  0  0  0  0  0  0  0999 V2000     
   20.2857   19.1290   25.9330 N   0  3  0  0  0  0  0  0  0  0  0  0
   20.9710   19.8212   25.5949 H   0  0  0  0  0  0  0  0  0  0  0  0
   20.8279   18.2711   26.1194 H   0  0  0  0  0  0  0  0  0  0  0  0
   19.2420   18.8647   24.8650 C   0  0  0  0  0  0  0  0  0  0  0  0
   18.6970   19.7954   24.6883 H   0  0  0  0  0  0  0  0  0  0  0  0
   18.5399   18.1291   25.2656 H   0  0  0  0  0  0  0  0  0  0  0  0
   19.8234   18.3442   23.5356 C   0  0  0  0  0  0  0  0  0  0  0  0
   20.3748   17.4125   23.7189 H   0  0  0  0  0  0  0  0  0  0  0  0
   18.9883   18.0815   22.8767 H   0  0  0  0  0  0  0  0  0  0  0  0
   20.7490   19.3772   22.8434 C   0  0  0  0  0  0  0  0  0  0  0  0
   21.6167   19.5585   23.4915 H   0  0  0  0  0  0  0  0  0  0  0  0
   20.2362   20.3439   22.7435 H   0  0  0  0  0  0  0  0  0  0  0  0
   21.2697   18.9068   21.4600 C   0  0  0  0  0  0  0  0  0  0  0  0
   22.2978   19.2751   21.3377 H   0  0  0  0  0  0  0  0  0  0  0  0
   21.3436   17.8109   21.4323 H   0  0  0  0  0  0  0  0  0  0  0  0
   20.4459   19.4165   20.2496 C   0  0  0  0  0  0  0  0  0  0  0  0
   20.9424   19.0865   19.3263 H   0  0  0  0  0  0  0  0  0  0  0  0
   20.4644   20.5151   20.2279 H   0  0  0  0  0  0  0  0  0  0  0  0
   18.9807   18.9286   20.2249 C   0  0  0  0  0  0  0  0  0  0  0  0
   18.4948   19.2220   19.2854 H   0  0  0  0  0  0  0  0  0  0  0  0
   18.3997   19.3689   21.0446 H   0  0  0  0  0  0  0  0  0  0  0  0
   18.9255   17.8352   20.3037 H   0  0  0  0  0  0  0  0  0  0  0  0
   19.6117   19.6229   27.2055 C   0  0  0  0  0  0  0  0  0  0  0  0
   19.0713   20.5473   26.9901 H   0  0  0  0  0  0  0  0  0  0  0  0
   18.9148   18.8611   27.5616 H   0  0  0  0  0  0  0  0  0  0  0  0
   20.3739   19.8097   27.9653 H   0  0  0  0  0  0  0  0  0  0  0  0
  1  2  1  0  0  0  0
  1  3  1  0  0  0  0
  1  4  1  0  0  0  0
  4  5  1  0  0  0  0
  4  6  1  0  0  0  0
  4  7  1  0  0  0  0
  7  8  1  0  0  0  0
  7  9  1  0  0  0  0
  7 10  1  0  0  0  0
 10 11  1  0  0  0  0
 10 12  1  0  0  0  0
 10 13  1  0  0  0  0
 13 14  1  0  0  0  0
 13 15  1  0  0  0  0
 13 16  1  0  0  0  0
 16 17  1  0  0  0  0
 16 18  1  0  0  0  0
 16 19  1  0  0  0  0
 19 20  1  0  0  0  0
 19 21  1  0  0  0  0
 19 22  1  0  0  0  0
  1 23  1  0  0  0  0
 23 24  1  0  0  0  0
 23 25  1  0  0  0  0
 23 26  1  0  0  0  0
M  END
> <VM2 Rank>
152

> <Conf_Id>
536

> <Probability>
0.01

> <Sum Probability>
99.73

> <Delta G>
3.795

> <G>
79.261

> <E>
46.642

> <-TS>
32.618

> <U+W>
25.181

> <U>
74.517

> <W>
-49.336

> <W(PB)>
-51.570

> <W(SA)>
2.234

> <Valence>
4.842

> <Coulomb>
69.333

> <VdW>
0.342

> <VdW6>
-7.369

> <VdW12>
7.711

> <Bond>
0.232

> <Angle>
1.153

> <Pdih>
3.457

> <Idih>
0.000

> <Tether>
0.000

$$$$
VeraChem MOL file


 26 25  0  0  0  0  0  0  0  0999 V2000     
   20.5174   19.3861   25.7252 N   0  3  0  0  0  0  0  0  0  0  0  0
   20.3362   20.3471   25.3982 H   0  0  0  0  0  0  0  0  0  0  0  0
   21.5055   19.1974   25.4961 H   0  0  0  0  0  0  0  0  0  0  0  0
   19.6165   18.4094   24.9943 C   0  0  0  0  0  0  0  0  0  0  0  0
   18.5817   18.6460   25.2543 H   0  0  0  0  0  0  0  0  0  0  0  0
   19.8421   17.4079   25.3694 H   0  0  0  0  0  0  0  0  0  0  0  0
   19.7843   18.4316   23.4623 C   0  0  0  0  0  0  0  0  0  0  0  0
   20.8259   18.1925   23.2144 H   0  0  0  0  0  0  0  0  0  0  0  0
   19.1611   17.6362   23.0326 H   0  0  0  0  0  0  0  0  0  0  0  0
   19.3854   19.7915   22.8400 C   0  0  0  0  0  0  0  0  0  0  0  0
   20.0883   20.5700   23.1654 H   0  0  0  0  0  0  0  0  0  0  0  0
   18.4004   20.0852   23.2289 H   0  0  0  0  0  0  0  0  0  0  0  0
   19.3135   19.7888   21.2909 C   0  0  0  0  0  0  0  0  0  0  0  0
   18.5401   19.0874   20.9487 H   0  0  0  0  0  0  0  0  0  0  0  0
   18.9696   20.7835   20.9752 H   0  0  0  0  0  0  0  0  0  0  0  0
   20.6583   19.4955   20.5764 C   0  0  0  0  0  0  0  0  0  0  0  0
   21.5010   19.8445   21.1892 H   0  0  0  0  0  0  0  0  0  0  0  0
   20.6962   20.0840   19.6489 H   0  0  0  0  0  0  0  0  0  0  0  0
   20.8459   18.0066   20.2018 C   0  0  0  0  0  0  0  0  0  0  0  0
   20.0423   17.6656   19.5362 H   0  0  0  0  0  0  0  0  0  0  0  0
   20.8527   17.3559   21.0829 H   0  0  0  0  0  0  0  0  0  0  0  0
   21.7977   17.8607   19.6749 H   0  0  0  0  0  0  0  0  0  0  0  0
   20.2867   19.2806   27.2262 C   0  0  0  0  0  0  0  0  0  0  0  0
   20.5146   18.2639   27.5539 H   0  0  0  0  0  0  0  0  0  0  0  0
   20.9406   19.9890   27.7399 H   0  0  0  0  0  0  0  0  0  0  0  0
   19.2430   19.5153   27.4466 H   0  0  0  0  0  0  0  0  0  0  0  0
  1  2  1  0  0  0  0
  1  3  1  0  0  0  0
  1  4  1  0  0  0  0
  4  5  1  0  0  0  0
  4  6  1  0  0  0  0
  4  7  1  0  0  0  0
  7  8  1  0  0  0  0
  7  9  1  0  0  0  0
  7 10  1  0  0  0  0
 10 11  1  0  0  0  0
 10 12  1  0  0  0  0
 10 13  1  0  0  0  0
 13 14  1  0  0  0  0
 13 15  1  0  0  0  0
 13 16  1  0  0  0  0
 16 17  1  0  0  0  0
 16 18  1  0  0  0  0
 16 19  1  0  0  0  0
 19 20  1  0  0  0  0
 19 21  1  0  0  0  0
 19 22  1  0  0  0  0
  1 23  1  0  0  0  0
 23 24  1  0  0  0  0
 23 25  1  0  0  0  0
 23 26  1  0  0  0  0
M  END
> <VM2 Rank>
153

> <Conf_Id>
1865

> <Probability>
0.01

> <Sum Probability>
99.74

> <Delta G>
3.830

> <G>
79.296

> <E>
46.710

> <-TS>
32.586

> <U+W>
25.248

> <U>
74.608

> <W>
-49.358

> <W(PB)>
-51.612

> <W(SA)>
2.254

> <Valence>
4.823

> <Coulomb>
69.470

> <VdW>
0.316

> <VdW6>
-7.375

> <VdW12>
7.690

> <Bond>
0.227

> <Angle>
1.210

> <Pdih>
3.386

> <Idih>
0.000

> <Tether>
0.000

$$$$
VeraChem MOL file


 26 25  0  0  0  0  0  0  0  0999 V2000     
   19.6255   19.0613   25.9097 N   0  3  0  0  0  0  0  0  0  0  0  0
   19.2566   18.1101   26.0638 H   0  0  0  0  0  0  0  0  0  0  0  0
   18.8395   19.6027   25.5194 H   0  0  0  0  0  0  0  0  0  0  0  0
   20.7732   19.0216   24.9192 C   0  0  0  0  0  0  0  0  0  0  0  0
   21.5800   18.4407   25.3733 H   0  0  0  0  0  0  0  0  0  0  0  0
   21.1293   20.0447   24.7744 H   0  0  0  0  0  0  0  0  0  0  0  0
   20.4039   18.4037   23.5562 C   0  0  0  0  0  0  0  0  0  0  0  0
   21.3190   18.3204   22.9593 H   0  0  0  0  0  0  0  0  0  0  0  0
   20.0413   17.3783   23.7071 H   0  0  0  0  0  0  0  0  0  0  0  0
   19.3389   19.2326   22.7935 C   0  0  0  0  0  0  0  0  0  0  0  0
   19.6509   20.2839   22.7228 H   0  0  0  0  0  0  0  0  0  0  0  0
   18.4092   19.2295   23.3779 H   0  0  0  0  0  0  0  0  0  0  0  0
   19.0226   18.6764   21.3803 C   0  0  0  0  0  0  0  0  0  0  0  0
   19.1745   17.5885   21.3553 H   0  0  0  0  0  0  0  0  0  0  0  0
   17.9524   18.8295   21.1837 H   0  0  0  0  0  0  0  0  0  0  0  0
   19.8087   19.3513   20.2271 C   0  0  0  0  0  0  0  0  0  0  0  0
   19.5696   20.4235   20.1964 H   0  0  0  0  0  0  0  0  0  0  0  0
   19.4553   18.9343   19.2736 H   0  0  0  0  0  0  0  0  0  0  0  0
   21.3405   19.1706   20.3085 C   0  0  0  0  0  0  0  0  0  0  0  0
   21.8214   19.5632   19.4033 H   0  0  0  0  0  0  0  0  0  0  0  0
   21.6104   18.1105   20.3986 H   0  0  0  0  0  0  0  0  0  0  0  0
   21.7613   19.7134   21.1638 H   0  0  0  0  0  0  0  0  0  0  0  0
   20.0946   19.6725   27.2226 C   0  0  0  0  0  0  0  0  0  0  0  0
   20.4502   20.6887   27.0389 H   0  0  0  0  0  0  0  0  0  0  0  0
   19.2592   19.6954   27.9259 H   0  0  0  0  0  0  0  0  0  0  0  0
   20.9048   19.0652   27.6321 H   0  0  0  0  0  0  0  0  0  0  0  0
  1  2  1  0  0  0  0
  1  3  1  0  0  0  0
  1  4  1  0  0  0  0
  4  5  1  0  0  0  0
  4  6  1  0  0  0  0
  4  7  1  0  0  0  0
  7  8  1  0  0  0  0
  7  9  1  0  0  0  0
  7 10  1  0  0  0  0
 10 11  1  0  0  0  0
 10 12  1  0  0  0  0
 10 13  1  0  0  0  0
 13 14  1  0  0  0  0
 13 15  1  0  0  0  0
 13 16  1  0  0  0  0
 16 17  1  0  0  0  0
 16 18  1  0  0  0  0
 16 19  1  0  0  0  0
 19 20  1  0  0  0  0
 19 21  1  0  0  0  0
 19 22  1  0  0  0  0
  1 23  1  0  0  0  0
 23 24  1  0  0  0  0
 23 25  1  0  0  0  0
 23 26  1  0  0  0  0
M  END
> <VM2 Rank>
154

> <Conf_Id>
711

> <Probability>
0.01

> <Sum Probability>
99.75

> <Delta G>
3.837

> <G>
79.303

> <E>
46.685

> <-TS>
32.618

> <U+W>
25.223

> <U>
74.516

> <W>
-49.294

> <W(PB)>
-51.561

> <W(SA)>
2.267

> <Valence>
4.842

> <Coulomb>
69.332

> <VdW>
0.342

> <VdW6>
-7.369

> <VdW12>
7.710

> <Bond>
0.232

> <Angle>
1.153

> <Pdih>
3.457

> <Idih>
0.000

> <Tether>
0.000

$$$$
VeraChem MOL file


 26 25  0  0  0  0  0  0  0  0999 V2000     
   19.3764   19.6985   25.4718 N   0  3  0  0  0  0  0  0  0  0  0  0
   18.8490   19.8497   24.6006 H   0  0  0  0  0  0  0  0  0  0  0  0
   19.1925   20.5346   26.0488 H   0  0  0  0  0  0  0  0  0  0  0  0
   20.8654   19.6035   25.1769 C   0  0  0  0  0  0  0  0  0  0  0  0
   21.3598   19.3662   26.1223 H   0  0  0  0  0  0  0  0  0  0  0  0
   21.2092   20.5913   24.8599 H   0  0  0  0  0  0  0  0  0  0  0  0
   21.2776   18.5589   24.1136 C   0  0  0  0  0  0  0  0  0  0  0  0
   22.3412   18.3342   24.2681 H   0  0  0  0  0  0  0  0  0  0  0  0
   20.7483   17.6119   24.2776 H   0  0  0  0  0  0  0  0  0  0  0  0
   21.1031   19.0242   22.6450 C   0  0  0  0  0  0  0  0  0  0  0  0
   21.5511   18.2578   22.0001 H   0  0  0  0  0  0  0  0  0  0  0  0
   21.6850   19.9413   22.4794 H   0  0  0  0  0  0  0  0  0  0  0  0
   19.6323   19.2608   22.2184 C   0  0  0  0  0  0  0  0  0  0  0  0
   19.0229   18.3813   22.4685 H   0  0  0  0  0  0  0  0  0  0  0  0
   19.2226   20.1045   22.7860 H   0  0  0  0  0  0  0  0  0  0  0  0
   19.4716   19.5893   20.7138 C   0  0  0  0  0  0  0  0  0  0  0  0
   20.0976   20.4537   20.4518 H   0  0  0  0  0  0  0  0  0  0  0  0
   18.4325   19.8970   20.5310 H   0  0  0  0  0  0  0  0  0  0  0  0
   19.8047   18.4015   19.7818 C   0  0  0  0  0  0  0  0  0  0  0  0
   20.8674   18.1346   19.8279 H   0  0  0  0  0  0  0  0  0  0  0  0
   19.5756   18.6566   18.7390 H   0  0  0  0  0  0  0  0  0  0  0  0
   19.2151   17.5141   20.0464 H   0  0  0  0  0  0  0  0  0  0  0  0
   18.8769   18.4534   26.1957 C   0  0  0  0  0  0  0  0  0  0  0  0
   17.8159   18.5753   26.4250 H   0  0  0  0  0  0  0  0  0  0  0  0
   19.0154   17.5808   25.5546 H   0  0  0  0  0  0  0  0  0  0  0  0
   19.4416   18.3265   27.1219 H   0  0  0  0  0  0  0  0  0  0  0  0
  1  2  1  0  0  0  0
  1  3  1  0  0  0  0
  1  4  1  0  0  0  0
  4  5  1  0  0  0  0
  4  6  1  0  0  0  0
  4  7  1  0  0  0  0
  7  8  1  0  0  0  0
  7  9  1  0  0  0  0
  7 10  1  0  0  0  0
 10 11  1  0  0  0  0
 10 12  1  0  0  0  0
 10 13  1  0  0  0  0
 13 14  1  0  0  0  0
 13 15  1  0  0  0  0
 13 16  1  0  0  0  0
 16 17  1  0  0  0  0
 16 18  1  0  0  0  0
 16 19  1  0  0  0  0
 19 20  1  0  0  0  0
 19 21  1  0  0  0  0
 19 22  1  0  0  0  0
  1 23  1  0  0  0  0
 23 24  1  0  0  0  0
 23 25  1  0  0  0  0
 23 26  1  0  0  0  0
M  END
> <VM2 Rank>
155

> <Conf_Id>
1316

> <Probability>
0.01

> <Sum Probability>
99.76

> <Delta G>
3.850

> <G>
79.316

> <E>
46.927

> <-TS>
32.389

> <U+W>
25.465

> <U>
75.175

> <W>
-49.711

> <W(PB)>
-51.956

> <W(SA)>
2.245

> <Valence>
4.303

> <Coulomb>
70.505

> <VdW>
0.368

> <VdW6>
-8.223

> <VdW12>
8.591

> <Bond>
0.267

> <Angle>
1.487

> <Pdih>
2.549

> <Idih>
0.000

> <Tether>
0.000

$$$$
VeraChem MOL file


 26 25  0  0  0  0  0  0  0  0999 V2000     
   19.3618   19.2687   25.6841 N   0  3  0  0  0  0  0  0  0  0  0  0
   18.4502   18.8870   25.3877 H   0  0  0  0  0  0  0  0  0  0  0  0
   19.3687   20.2487   25.3637 H   0  0  0  0  0  0  0  0  0  0  0  0
   20.4895   18.4980   25.0253 C   0  0  0  0  0  0  0  0  0  0  0  0
   20.4438   17.4690   25.3908 H   0  0  0  0  0  0  0  0  0  0  0  0
   21.4349   18.9358   25.3555 H   0  0  0  0  0  0  0  0  0  0  0  0
   20.4286   18.4969   23.4852 C   0  0  0  0  0  0  0  0  0  0  0  0
   21.2273   17.8459   23.1059 H   0  0  0  0  0  0  0  0  0  0  0  0
   19.4762   18.0554   23.1665 H   0  0  0  0  0  0  0  0  0  0  0  0
   20.5890   19.9136   22.8826 C   0  0  0  0  0  0  0  0  0  0  0  0
   21.4653   20.3963   23.3375 H   0  0  0  0  0  0  0  0  0  0  0  0
   19.7231   20.5329   23.1525 H   0  0  0  0  0  0  0  0  0  0  0  0
   20.7682   19.9364   21.3425 C   0  0  0  0  0  0  0  0  0  0  0  0
   20.9268   20.9821   21.0445 H   0  0  0  0  0  0  0  0  0  0  0  0
   21.6887   19.4069   21.0603 H   0  0  0  0  0  0  0  0  0  0  0  0
   19.5630   19.3844   20.5376 C   0  0  0  0  0  0  0  0  0  0  0  0
   19.4728   19.9600   19.6057 H   0  0  0  0  0  0  0  0  0  0  0  0
   18.6267   19.5527   21.0876 H   0  0  0  0  0  0  0  0  0  0  0  0
   19.7048   17.8908   20.1613 C   0  0  0  0  0  0  0  0  0  0  0  0
   20.6050   17.7229   19.5560 H   0  0  0  0  0  0  0  0  0  0  0  0
   18.8409   17.5606   19.5702 H   0  0  0  0  0  0  0  0  0  0  0  0
   19.7672   17.2457   21.0443 H   0  0  0  0  0  0  0  0  0  0  0  0
   19.5031   19.2012   27.1984 C   0  0  0  0  0  0  0  0  0  0  0  0
   20.4604   19.6392   27.4896 H   0  0  0  0  0  0  0  0  0  0  0  0
   18.6860   19.7602   27.6598 H   0  0  0  0  0  0  0  0  0  0  0  0
   19.4616   18.1572   27.5167 H   0  0  0  0  0  0  0  0  0  0  0  0
  1  2  1  0  0  0  0
  1  3  1  0  0  0  0
  1  4  1  0  0  0  0
  4  5  1  0  0  0  0
  4  6  1  0  0  0  0
  4  7  1  0  0  0  0
  7  8  1  0  0  0  0
  7  9  1  0  0  0  0
  7 10  1  0  0  0  0
 10 11  1  0  0  0  0
 10 12  1  0  0  0  0
 10 13  1  0  0  0  0
 13 14  1  0  0  0  0
 13 15  1  0  0  0  0
 13 16  1  0  0  0  0
 16 17  1  0  0  0  0
 16 18  1  0  0  0  0
 16 19  1  0  0  0  0
 19 20  1  0  0  0  0
 19 21  1  0  0  0  0
 19 22  1  0  0  0  0
  1 23  1  0  0  0  0
 23 24  1  0  0  0  0
 23 25  1  0  0  0  0
 23 26  1  0  0  0  0
M  END
> <VM2 Rank>
156

> <Conf_Id>
236

> <Probability>
0.01

> <Sum Probability>
99.77

> <Delta G>
3.876

> <G>
79.342

> <E>
46.756

> <-TS>
32.586

> <U+W>
25.295

> <U>
74.608

> <W>
-49.314

> <W(PB)>
-51.566

> <W(SA)>
2.252

> <Valence>
4.823

> <Coulomb>
69.470

> <VdW>
0.315

> <VdW6>
-7.375

> <VdW12>
7.690

> <Bond>
0.227

> <Angle>
1.209

> <Pdih>
3.386

> <Idih>
0.000

> <Tether>
0.000

$$$$
VeraChem MOL file


 26 25  0  0  0  0  0  0  0  0999 V2000     
   19.3468   18.8569   25.4488 N   0  3  0  0  0  0  0  0  0  0  0  0
   19.2125   17.8547   25.6546 H   0  0  0  0  0  0  0  0  0  0  0  0
   18.7714   19.0464   24.6158 H   0  0  0  0  0  0  0  0  0  0  0  0
   20.8079   19.1353   25.1509 C   0  0  0  0  0  0  0  0  0  0  0  0
   21.3702   18.8670   26.0489 H   0  0  0  0  0  0  0  0  0  0  0  0
   20.9297   20.2082   24.9822 H   0  0  0  0  0  0  0  0  0  0  0  0
   21.3734   18.3490   23.9494 C   0  0  0  0  0  0  0  0  0  0  0  0
   22.4601   18.2678   24.0850 H   0  0  0  0  0  0  0  0  0  0  0  0
   20.9916   17.3195   23.9594 H   0  0  0  0  0  0  0  0  0  0  0  0
   21.1156   19.0076   22.5696 C   0  0  0  0  0  0  0  0  0  0  0  0
   21.6452   18.4139   21.8138 H   0  0  0  0  0  0  0  0  0  0  0  0
   21.5740   20.0060   22.5510 H   0  0  0  0  0  0  0  0  0  0  0  0
   19.6192   19.1214   22.1829 C   0  0  0  0  0  0  0  0  0  0  0  0
   19.1332   18.1400   22.2721 H   0  0  0  0  0  0  0  0  0  0  0  0
   19.1141   19.7940   22.8869 H   0  0  0  0  0  0  0  0  0  0  0  0
   19.3920   19.6811   20.7573 C   0  0  0  0  0  0  0  0  0  0  0  0
   19.8918   20.6545   20.6548 H   0  0  0  0  0  0  0  0  0  0  0  0
   18.3181   19.8726   20.6226 H   0  0  0  0  0  0  0  0  0  0  0  0
   19.8674   18.7294   19.6355 C   0  0  0  0  0  0  0  0  0  0  0  0
   20.9571   18.6051   19.6434 H   0  0  0  0  0  0  0  0  0  0  0  0
   19.5899   19.1283   18.6513 H   0  0  0  0  0  0  0  0  0  0  0  0
   19.4070   17.7380   19.7367 H   0  0  0  0  0  0  0  0  0  0  0  0
   18.8857   19.7093   26.6226 C   0  0  0  0  0  0  0  0  0  0  0  0
   17.8337   19.4982   26.8274 H   0  0  0  0  0  0  0  0  0  0  0  0
   19.4882   19.4669   27.5007 H   0  0  0  0  0  0  0  0  0  0  0  0
   19.0079   20.7648   26.3699 H   0  0  0  0  0  0  0  0  0  0  0  0
  1  2  1  0  0  0  0
  1  3  1  0  0  0  0
  1  4  1  0  0  0  0
  4  5  1  0  0  0  0
  4  6  1  0  0  0  0
  4  7  1  0  0  0  0
  7  8  1  0  0  0  0
  7  9  1  0  0  0  0
  7 10  1  0  0  0  0
 10 11  1  0  0  0  0
 10 12  1  0  0  0  0
 10 13  1  0  0  0  0
 13 14  1  0  0  0  0
 13 15  1  0  0  0  0
 13 16  1  0  0  0  0
 16 17  1  0  0  0  0
 16 18  1  0  0  0  0
 16 19  1  0  0  0  0
 19 20  1  0  0  0  0
 19 21  1  0  0  0  0
 19 22  1  0  0  0  0
  1 23  1  0  0  0  0
 23 24  1  0  0  0  0
 23 25  1  0  0  0  0
 23 26  1  0  0  0  0
M  END
> <VM2 Rank>
157

> <Conf_Id>
1327

> <Probability>
0.01

> <Sum Probability>
99.78

> <Delta G>
3.877

> <G>
79.343

> <E>
46.968

> <-TS>
32.375

> <U+W>
25.506

> <U>
74.712

> <W>
-49.206

> <W(PB)>
-51.496

> <W(SA)>
2.291

> <Valence>
4.001

> <Coulomb>
70.536

> <VdW>
0.175

> <VdW6>
-7.476

> <VdW12>
7.652

> <Bond>
0.220

> <Angle>
1.251

> <Pdih>
2.530

> <Idih>
0.000

> <Tether>
0.000

$$$$
VeraChem MOL file


 26 25  0  0  0  0  0  0  0  0999 V2000     
   19.7067   18.7423   25.8805 N   0  3  0  0  0  0  0  0  0  0  0  0
   19.7415   17.7134   25.8109 H   0  0  0  0  0  0  0  0  0  0  0  0
   18.7542   19.0068   25.5875 H   0  0  0  0  0  0  0  0  0  0  0  0
   20.7305   19.3630   24.9495 C   0  0  0  0  0  0  0  0  0  0  0  0
   21.7197   19.0566   25.2990 H   0  0  0  0  0  0  0  0  0  0  0  0
   20.6575   20.4495   25.0425 H   0  0  0  0  0  0  0  0  0  0  0  0
   20.5639   18.9561   23.4720 C   0  0  0  0  0  0  0  0  0  0  0  0
   21.4209   19.3558   22.9163 H   0  0  0  0  0  0  0  0  0  0  0  0
   20.6073   17.8624   23.3848 H   0  0  0  0  0  0  0  0  0  0  0  0
   19.2516   19.4908   22.8481 C   0  0  0  0  0  0  0  0  0  0  0  0
   19.2589   20.5894   22.8717 H   0  0  0  0  0  0  0  0  0  0  0  0
   18.3989   19.1783   23.4650 H   0  0  0  0  0  0  0  0  0  0  0  0
   18.9908   19.0093   21.3971 C   0  0  0  0  0  0  0  0  0  0  0  0
   18.8733   17.9171   21.3768 H   0  0  0  0  0  0  0  0  0  0  0  0
   18.0190   19.4159   21.0843 H   0  0  0  0  0  0  0  0  0  0  0  0
   20.0549   19.4536   20.3602 C   0  0  0  0  0  0  0  0  0  0  0  0
   20.5175   20.4014   20.6688 H   0  0  0  0  0  0  0  0  0  0  0  0
   19.5489   19.6619   19.4069 H   0  0  0  0  0  0  0  0  0  0  0  0
   21.1413   18.3842   20.0981 C   0  0  0  0  0  0  0  0  0  0  0  0
   21.7059   18.1377   21.0039 H   0  0  0  0  0  0  0  0  0  0  0  0
   21.8576   18.7408   19.3468 H   0  0  0  0  0  0  0  0  0  0  0  0
   20.6941   17.4570   19.7169 H   0  0  0  0  0  0  0  0  0  0  0  0
   19.9684   19.1907   27.3116 C   0  0  0  0  0  0  0  0  0  0  0  0
   19.8948   20.2790   27.3660 H   0  0  0  0  0  0  0  0  0  0  0  0
   19.2249   18.7371   27.9708 H   0  0  0  0  0  0  0  0  0  0  0  0
   20.9695   18.8720   27.6103 H   0  0  0  0  0  0  0  0  0  0  0  0
  1  2  1  0  0  0  0
  1  3  1  0  0  0  0
  1  4  1  0  0  0  0
  4  5  1  0  0  0  0
  4  6  1  0  0  0  0
  4  7  1  0  0  0  0
  7  8  1  0  0  0  0
  7  9  1  0  0  0  0
  7 10  1  0  0  0  0
 10 11  1  0  0  0  0
 10 12  1  0  0  0  0
 10 13  1  0  0  0  0
 13 14  1  0  0  0  0
 13 15  1  0  0  0  0
 13 16  1  0  0  0  0
 16 17  1  0  0  0  0
 16 18  1  0  0  0  0
 16 19  1  0  0  0  0
 19 20  1  0  0  0  0
 19 21  1  0  0  0  0
 19 22  1  0  0  0  0
  1 23  1  0  0  0  0
 23 24  1  0  0  0  0
 23 25  1  0  0  0  0
 23 26  1  0  0  0  0
M  END
> <VM2 Rank>
158

> <Conf_Id>
680

> <Probability>
0.01

> <Sum Probability>
99.79

> <Delta G>
3.878

> <G>
79.344

> <E>
46.765

> <-TS>
32.579

> <U+W>
25.303

> <U>
74.594

> <W>
-49.291

> <W(PB)>
-51.538

> <W(SA)>
2.247

> <Valence>
4.886

> <Coulomb>
69.332

> <VdW>
0.377

> <VdW6>
-7.329

> <VdW12>
7.706

> <Bond>
0.232

> <Angle>
1.250

> <Pdih>
3.404

> <Idih>
0.000

> <Tether>
0.000

$$$$
VeraChem MOL file


 26 25  0  0  0  0  0  0  0  0999 V2000     
   20.2726   18.8000   25.9006 N   0  3  0  0  0  0  0  0  0  0  0  0
   21.1704   19.2532   25.6731 H   0  0  0  0  0  0  0  0  0  0  0  0
   20.4509   17.7858   25.8361 H   0  0  0  0  0  0  0  0  0  0  0  0
   19.2125   19.2083   24.8957 C   0  0  0  0  0  0  0  0  0  0  0  0
   19.0584   20.2865   24.9858 H   0  0  0  0  0  0  0  0  0  0  0  0
   18.2833   18.7063   25.1773 H   0  0  0  0  0  0  0  0  0  0  0  0
   19.5608   18.8538   23.4364 C   0  0  0  0  0  0  0  0  0  0  0  0
   19.7448   17.7745   23.3542 H   0  0  0  0  0  0  0  0  0  0  0  0
   18.6819   19.0767   22.8193 H   0  0  0  0  0  0  0  0  0  0  0  0
   20.7789   19.6463   22.9022 C   0  0  0  0  0  0  0  0  0  0  0  0
   21.6316   19.5076   23.5796 H   0  0  0  0  0  0  0  0  0  0  0  0
   20.5488   20.7207   22.9174 H   0  0  0  0  0  0  0  0  0  0  0  0
   21.2324   19.2375   21.4766 C   0  0  0  0  0  0  0  0  0  0  0  0
   22.1220   19.8335   21.2298 H   0  0  0  0  0  0  0  0  0  0  0  0
   21.5684   18.1914   21.4725 H   0  0  0  0  0  0  0  0  0  0  0  0
   20.1762   19.4660   20.3644 C   0  0  0  0  0  0  0  0  0  0  0  0
   20.6955   19.7786   19.4476 H   0  0  0  0  0  0  0  0  0  0  0  0
   19.5118   20.2991   20.6330 H   0  0  0  0  0  0  0  0  0  0  0  0
   19.3482   18.2018   20.0345 C   0  0  0  0  0  0  0  0  0  0  0  0
   18.6293   18.4123   19.2321 H   0  0  0  0  0  0  0  0  0  0  0  0
   18.7825   17.8403   20.9001 H   0  0  0  0  0  0  0  0  0  0  0  0
   19.9984   17.3862   19.6923 H   0  0  0  0  0  0  0  0  0  0  0  0
   19.8264   19.1763   27.3066 C   0  0  0  0  0  0  0  0  0  0  0  0
   19.6751   20.2568   27.3582 H   0  0  0  0  0  0  0  0  0  0  0  0
   18.8917   18.6603   27.5367 H   0  0  0  0  0  0  0  0  0  0  0  0
   20.5981   18.8773   28.0195 H   0  0  0  0  0  0  0  0  0  0  0  0
  1  2  1  0  0  0  0
  1  3  1  0  0  0  0
  1  4  1  0  0  0  0
  4  5  1  0  0  0  0
  4  6  1  0  0  0  0
  4  7  1  0  0  0  0
  7  8  1  0  0  0  0
  7  9  1  0  0  0  0
  7 10  1  0  0  0  0
 10 11  1  0  0  0  0
 10 12  1  0  0  0  0
 10 13  1  0  0  0  0
 13 14  1  0  0  0  0
 13 15  1  0  0  0  0
 13 16  1  0  0  0  0
 16 17  1  0  0  0  0
 16 18  1  0  0  0  0
 16 19  1  0  0  0  0
 19 20  1  0  0  0  0
 19 21  1  0  0  0  0
 19 22  1  0  0  0  0
  1 23  1  0  0  0  0
 23 24  1  0  0  0  0
 23 25  1  0  0  0  0
 23 26  1  0  0  0  0
M  END
> <VM2 Rank>
159

> <Conf_Id>
107

> <Probability>
0.01

> <Sum Probability>
99.80

> <Delta G>
3.885

> <G>
79.351

> <E>
46.772

> <-TS>
32.579

> <U+W>
25.310

> <U>
74.594

> <W>
-49.284

> <W(PB)>
-51.537

> <W(SA)>
2.253

> <Valence>
4.886

> <Coulomb>
69.332

> <VdW>
0.376

> <VdW6>
-7.329

> <VdW12>
7.706

> <Bond>
0.232

> <Angle>
1.250

> <Pdih>
3.403

> <Idih>
0.000

> <Tether>
0.000

$$$$
VeraChem MOL file


 26 25  0  0  0  0  0  0  0  0999 V2000     
   19.7874   18.4304   25.8902 N   0  3  0  0  0  0  0  0  0  0  0  0
   20.6555   18.0641   26.3108 H   0  0  0  0  0  0  0  0  0  0  0  0
   19.2732   17.6010   25.5550 H   0  0  0  0  0  0  0  0  0  0  0  0
   20.1154   19.3473   24.7290 C   0  0  0  0  0  0  0  0  0  0  0  0
   20.6672   20.2039   25.1240 H   0  0  0  0  0  0  0  0  0  0  0  0
   19.1715   19.7075   24.3138 H   0  0  0  0  0  0  0  0  0  0  0  0
   20.9451   18.6604   23.6267 C   0  0  0  0  0  0  0  0  0  0  0  0
   21.8693   18.2691   24.0721 H   0  0  0  0  0  0  0  0  0  0  0  0
   20.3959   17.7937   23.2429 H   0  0  0  0  0  0  0  0  0  0  0  0
   21.3204   19.6259   22.4737 C   0  0  0  0  0  0  0  0  0  0  0  0
   22.0462   19.1412   21.8063 H   0  0  0  0  0  0  0  0  0  0  0  0
   21.8485   20.4857   22.9089 H   0  0  0  0  0  0  0  0  0  0  0  0
   20.1178   20.1516   21.6424 C   0  0  0  0  0  0  0  0  0  0  0  0
   19.2196   20.2452   22.2661 H   0  0  0  0  0  0  0  0  0  0  0  0
   20.3537   21.1736   21.3149 H   0  0  0  0  0  0  0  0  0  0  0  0
   19.7931   19.3235   20.3728 C   0  0  0  0  0  0  0  0  0  0  0  0
   20.6617   19.3232   19.6995 H   0  0  0  0  0  0  0  0  0  0  0  0
   18.9855   19.8296   19.8255 H   0  0  0  0  0  0  0  0  0  0  0  0
   19.3615   17.8676   20.6536 C   0  0  0  0  0  0  0  0  0  0  0  0
   18.5464   17.8295   21.3878 H   0  0  0  0  0  0  0  0  0  0  0  0
   20.2004   17.2688   21.0286 H   0  0  0  0  0  0  0  0  0  0  0  0
   19.0058   17.3890   19.7321 H   0  0  0  0  0  0  0  0  0  0  0  0
   18.9674   19.1833   26.9286 C   0  0  0  0  0  0  0  0  0  0  0  0
   18.0397   19.5323   26.4697 H   0  0  0  0  0  0  0  0  0  0  0  0
   18.7382   18.5121   27.7594 H   0  0  0  0  0  0  0  0  0  0  0  0
   19.5444   20.0364   27.2922 H   0  0  0  0  0  0  0  0  0  0  0  0
  1  2  1  0  0  0  0
  1  3  1  0  0  0  0
  1  4  1  0  0  0  0
  4  5  1  0  0  0  0
  4  6  1  0  0  0  0
  4  7  1  0  0  0  0
  7  8  1  0  0  0  0
  7  9  1  0  0  0  0
  7 10  1  0  0  0  0
 10 11  1  0  0  0  0
 10 12  1  0  0  0  0
 10 13  1  0  0  0  0
 13 14  1  0  0  0  0
 13 15  1  0  0  0  0
 13 16  1  0  0  0  0
 16 17  1  0  0  0  0
 16 18  1  0  0  0  0
 16 19  1  0  0  0  0
 19 20  1  0  0  0  0
 19 21  1  0  0  0  0
 19 22  1  0  0  0  0
  1 23  1  0  0  0  0
 23 24  1  0  0  0  0
 23 25  1  0  0  0  0
 23 26  1  0  0  0  0
M  END
> <VM2 Rank>
160

> <Conf_Id>
1755

> <Probability>
0.01

> <Sum Probability>
99.81

> <Delta G>
3.905

> <G>
79.371

> <E>
46.848

> <-TS>
32.523

> <U+W>
25.386

> <U>
74.853

> <W>
-49.467

> <W(PB)>
-51.721

> <W(SA)>
2.254

> <Valence>
5.099

> <Coulomb>
69.479

> <VdW>
0.275

> <VdW6>
-7.404

> <VdW12>
7.679

> <Bond>
0.247

> <Angle>
1.395

> <Pdih>
3.457

> <Idih>
0.000

> <Tether>
0.000

$$$$
VeraChem MOL file


 26 25  0  0  0  0  0  0  0  0999 V2000     
   20.2557   18.4780   25.9069 N   0  3  0  0  0  0  0  0  0  0  0  0
   20.9486   17.7716   25.6146 H   0  0  0  0  0  0  0  0  0  0  0  0
   19.4517   17.9414   26.2681 H   0  0  0  0  0  0  0  0  0  0  0  0
   19.8323   19.3184   24.7191 C   0  0  0  0  0  0  0  0  0  0  0  0
   20.7112   19.8642   24.3687 H   0  0  0  0  0  0  0  0  0  0  0  0
   19.0931   20.0437   25.0683 H   0  0  0  0  0  0  0  0  0  0  0  0
   19.2372   18.4866   23.5662 C   0  0  0  0  0  0  0  0  0  0  0  0
   19.9751   17.7509   23.2280 H   0  0  0  0  0  0  0  0  0  0  0  0
   18.3817   17.9142   23.9484 H   0  0  0  0  0  0  0  0  0  0  0  0
   18.7572   19.3652   22.3829 C   0  0  0  0  0  0  0  0  0  0  0  0
   18.0377   20.0981   22.7739 H   0  0  0  0  0  0  0  0  0  0  0  0
   18.1922   18.7492   21.6698 H   0  0  0  0  0  0  0  0  0  0  0  0
   19.8848   20.1279   21.6343 C   0  0  0  0  0  0  0  0  0  0  0  0
   19.4718   21.0841   21.2841 H   0  0  0  0  0  0  0  0  0  0  0  0
   20.6999   20.3953   22.3186 H   0  0  0  0  0  0  0  0  0  0  0  0
   20.4571   19.3912   20.3961 C   0  0  0  0  0  0  0  0  0  0  0  0
   21.1828   20.0532   19.9032 H   0  0  0  0  0  0  0  0  0  0  0  0
   19.6555   19.2215   19.6637 H   0  0  0  0  0  0  0  0  0  0  0  0
   21.1515   18.0495   20.7165 C   0  0  0  0  0  0  0  0  0  0  0  0
   21.6594   17.6588   19.8253 H   0  0  0  0  0  0  0  0  0  0  0  0
   20.4259   17.2918   21.0361 H   0  0  0  0  0  0  0  0  0  0  0  0
   21.9044   18.1706   21.5060 H   0  0  0  0  0  0  0  0  0  0  0  0
   20.8323   19.3731   26.9951 C   0  0  0  0  0  0  0  0  0  0  0  0
   20.0713   20.0900   27.3111 H   0  0  0  0  0  0  0  0  0  0  0  0
   21.1330   18.7558   27.8446 H   0  0  0  0  0  0  0  0  0  0  0  0
   21.7006   19.9050   26.6000 H   0  0  0  0  0  0  0  0  0  0  0  0
  1  2  1  0  0  0  0
  1  3  1  0  0  0  0
  1  4  1  0  0  0  0
  4  5  1  0  0  0  0
  4  6  1  0  0  0  0
  4  7  1  0  0  0  0
  7  8  1  0  0  0  0
  7  9  1  0  0  0  0
  7 10  1  0  0  0  0
 10 11  1  0  0  0  0
 10 12  1  0  0  0  0
 10 13  1  0  0  0  0
 13 14  1  0  0  0  0
 13 15  1  0  0  0  0
 13 16  1  0  0  0  0
 16 17  1  0  0  0  0
 16 18  1  0  0  0  0
 16 19  1  0  0  0  0
 19 20  1  0  0  0  0
 19 21  1  0  0  0  0
 19 22  1  0  0  0  0
  1 23  1  0  0  0  0
 23 24  1  0  0  0  0
 23 25  1  0  0  0  0
 23 26  1  0  0  0  0
M  END
> <VM2 Rank>
161

> <Conf_Id>
1300

> <Probability>
0.01

> <Sum Probability>
99.82

> <Delta G>
3.915

> <G>
79.381

> <E>
46.858

> <-TS>
32.524

> <U+W>
25.396

> <U>
74.853

> <W>
-49.457

> <W(PB)>
-51.723

> <W(SA)>
2.266

> <Valence>
5.100

> <Coulomb>
69.478

> <VdW>
0.275

> <VdW6>
-7.403

> <VdW12>
7.678

> <Bond>
0.247

> <Angle>
1.394

> <Pdih>
3.459

> <Idih>
0.000

> <Tether>
0.000

$$$$
VeraChem MOL file


 26 25  0  0  0  0  0  0  0  0999 V2000     
   20.0583   19.6638   25.7445 N   0  3  0  0  0  0  0  0  0  0  0  0
   20.5648   20.4043   25.2370 H   0  0  0  0  0  0  0  0  0  0  0  0
   20.3239   19.7874   26.7344 H   0  0  0  0  0  0  0  0  0  0  0  0
   20.5135   18.2949   25.2630 C   0  0  0  0  0  0  0  0  0  0  0  0
   19.9442   17.5440   25.8168 H   0  0  0  0  0  0  0  0  0  0  0  0
   21.5664   18.1863   25.5352 H   0  0  0  0  0  0  0  0  0  0  0  0
   20.3587   18.0455   23.7470 C   0  0  0  0  0  0  0  0  0  0  0  0
   20.6802   17.0174   23.5346 H   0  0  0  0  0  0  0  0  0  0  0  0
   19.2991   18.0938   23.4739 H   0  0  0  0  0  0  0  0  0  0  0  0
   21.1986   19.0278   22.8911 C   0  0  0  0  0  0  0  0  0  0  0  0
   22.2502   18.9312   23.1951 H   0  0  0  0  0  0  0  0  0  0  0  0
   20.9154   20.0678   23.1001 H   0  0  0  0  0  0  0  0  0  0  0  0
   21.1014   18.7557   21.3671 C   0  0  0  0  0  0  0  0  0  0  0  0
   22.0780   18.9809   20.9164 H   0  0  0  0  0  0  0  0  0  0  0  0
   20.9296   17.6868   21.1798 H   0  0  0  0  0  0  0  0  0  0  0  0
   20.0385   19.6043   20.6230 C   0  0  0  0  0  0  0  0  0  0  0  0
   20.1017   19.3779   19.5494 H   0  0  0  0  0  0  0  0  0  0  0  0
   20.2829   20.6711   20.7229 H   0  0  0  0  0  0  0  0  0  0  0  0
   18.5874   19.3656   21.0944 C   0  0  0  0  0  0  0  0  0  0  0  0
   17.8805   19.8927   20.4407 H   0  0  0  0  0  0  0  0  0  0  0  0
   18.4325   19.7417   22.1129 H   0  0  0  0  0  0  0  0  0  0  0  0
   18.3333   18.2981   21.0718 H   0  0  0  0  0  0  0  0  0  0  0  0
   18.5516   19.8325   25.5869 C   0  0  0  0  0  0  0  0  0  0  0  0
   18.0421   19.0469   26.1491 H   0  0  0  0  0  0  0  0  0  0  0  0
   18.2593   20.8114   25.9735 H   0  0  0  0  0  0  0  0  0  0  0  0
   18.2890   19.7620   24.5296 H   0  0  0  0  0  0  0  0  0  0  0  0
  1  2  1  0  0  0  0
  1  3  1  0  0  0  0
  1  4  1  0  0  0  0
  4  5  1  0  0  0  0
  4  6  1  0  0  0  0
  4  7  1  0  0  0  0
  7  8  1  0  0  0  0
  7  9  1  0  0  0  0
  7 10  1  0  0  0  0
 10 11  1  0  0  0  0
 10 12  1  0  0  0  0
 10 13  1  0  0  0  0
 13 14  1  0  0  0  0
 13 15  1  0  0  0  0
 13 16  1  0  0  0  0
 16 17  1  0  0  0  0
 16 18  1  0  0  0  0
 16 19  1  0  0  0  0
 19 20  1  0  0  0  0
 19 21  1  0  0  0  0
 19 22  1  0  0  0  0
  1 23  1  0  0  0  0
 23 24  1  0  0  0  0
 23 25  1  0  0  0  0
 23 26  1  0  0  0  0
M  END
> <VM2 Rank>
162

> <Conf_Id>
1365

> <Probability>
0.01

> <Sum Probability>
99.83

> <Delta G>
3.919

> <G>
79.385

> <E>
46.492

> <-TS>
32.893

> <U+W>
25.030

> <U>
75.103

> <W>
-50.073

> <W(PB)>
-52.263

> <W(SA)>
2.191

> <Valence>
5.036

> <Coulomb>
69.777

> <VdW>
0.290

> <VdW6>
-8.614

> <VdW12>
8.904

> <Bond>
0.274

> <Angle>
1.357

> <Pdih>
3.405

> <Idih>
0.000

> <Tether>
0.000

$$$$
VeraChem MOL file


 26 25  0  0  0  0  0  0  0  0999 V2000     
   20.2060   19.3042   25.9675 N   0  3  0  0  0  0  0  0  0  0  0  0
   21.0055   19.8727   25.6509 H   0  0  0  0  0  0  0  0  0  0  0  0
   20.4259   19.0526   26.9444 H   0  0  0  0  0  0  0  0  0  0  0  0
   20.0992   18.0403   25.1283 C   0  0  0  0  0  0  0  0  0  0  0  0
   19.2356   17.4756   25.4887 H   0  0  0  0  0  0  0  0  0  0  0  0
   20.9947   17.4442   25.3212 H   0  0  0  0  0  0  0  0  0  0  0  0
   19.9679   18.2703   23.6069 C   0  0  0  0  0  0  0  0  0  0  0  0
   19.8774   17.2928   23.1153 H   0  0  0  0  0  0  0  0  0  0  0  0
   19.0383   18.8147   23.4025 H   0  0  0  0  0  0  0  0  0  0  0  0
   21.1754   19.0355   23.0138 C   0  0  0  0  0  0  0  0  0  0  0  0
   22.1033   18.5559   23.3551 H   0  0  0  0  0  0  0  0  0  0  0  0
   21.1949   20.0599   23.4095 H   0  0  0  0  0  0  0  0  0  0  0  0
   21.1984   19.0903   21.4642 C   0  0  0  0  0  0  0  0  0  0  0  0
   22.1219   19.6060   21.1663 H   0  0  0  0  0  0  0  0  0  0  0  0
   21.2807   18.0758   21.0504 H   0  0  0  0  0  0  0  0  0  0  0  0
   20.0011   19.8373   20.8212 C   0  0  0  0  0  0  0  0  0  0  0  0
   20.3579   20.3611   19.9233 H   0  0  0  0  0  0  0  0  0  0  0  0
   19.6300   20.6191   21.4985 H   0  0  0  0  0  0  0  0  0  0  0  0
   18.8459   18.9003   20.3971 C   0  0  0  0  0  0  0  0  0  0  0  0
   18.4149   18.3631   21.2488 H   0  0  0  0  0  0  0  0  0  0  0  0
   19.1926   18.1558   19.6686 H   0  0  0  0  0  0  0  0  0  0  0  0
   18.0389   19.4757   19.9253 H   0  0  0  0  0  0  0  0  0  0  0  0
   18.9141   20.1118   25.9178 C   0  0  0  0  0  0  0  0  0  0  0  0
   18.0891   19.4909   26.2738 H   0  0  0  0  0  0  0  0  0  0  0  0
   19.0172   20.9906   26.5582 H   0  0  0  0  0  0  0  0  0  0  0  0
   18.7246   20.4269   24.8898 H   0  0  0  0  0  0  0  0  0  0  0  0
  1  2  1  0  0  0  0
  1  3  1  0  0  0  0
  1  4  1  0  0  0  0
  4  5  1  0  0  0  0
  4  6  1  0  0  0  0
  4  7  1  0  0  0  0
  7  8  1  0  0  0  0
  7  9  1  0  0  0  0
  7 10  1  0  0  0  0
 10 11  1  0  0  0  0
 10 12  1  0  0  0  0
 10 13  1  0  0  0  0
 13 14  1  0  0  0  0
 13 15  1  0  0  0  0
 13 16  1  0  0  0  0
 16 17  1  0  0  0  0
 16 18  1  0  0  0  0
 16 19  1  0  0  0  0
 19 20  1  0  0  0  0
 19 21  1  0  0  0  0
 19 22  1  0  0  0  0
  1 23  1  0  0  0  0
 23 24  1  0  0  0  0
 23 25  1  0  0  0  0
 23 26  1  0  0  0  0
M  END
> <VM2 Rank>
163

> <Conf_Id>
568

> <Probability>
0.01

> <Sum Probability>
99.84

> <Delta G>
3.934

> <G>
79.400

> <E>
46.583

> <-TS>
32.817

> <U+W>
25.121

> <U>
74.888

> <W>
-49.767

> <W(PB)>
-51.981

> <W(SA)>
2.214

> <Valence>
5.066

> <Coulomb>
69.354

> <VdW>
0.468

> <VdW6>
-8.349

> <VdW12>
8.817

> <Bond>
0.269

> <Angle>
1.348

> <Pdih>
3.449

> <Idih>
0.000

> <Tether>
0.000

$$$$
VeraChem MOL file


 26 25  0  0  0  0  0  0  0  0999 V2000     
   19.2298   19.0721   25.4594 N   0  3  0  0  0  0  0  0  0  0  0  0
   18.5966   18.3363   25.1100 H   0  0  0  0  0  0  0  0  0  0  0  0
   18.9406   19.9374   24.9792 H   0  0  0  0  0  0  0  0  0  0  0  0
   20.6658   18.7358   25.1067 C   0  0  0  0  0  0  0  0  0  0  0  0
   20.9273   17.8146   25.6336 H   0  0  0  0  0  0  0  0  0  0  0  0
   21.3036   19.5384   25.4855 H   0  0  0  0  0  0  0  0  0  0  0  0
   20.9102   18.5477   23.5966 C   0  0  0  0  0  0  0  0  0  0  0  0
   21.9433   18.2032   23.4555 H   0  0  0  0  0  0  0  0  0  0  0  0
   20.2649   17.7444   23.2239 H   0  0  0  0  0  0  0  0  0  0  0  0
   20.6956   19.8547   22.7910 C   0  0  0  0  0  0  0  0  0  0  0  0
   21.3663   20.6218   23.2027 H   0  0  0  0  0  0  0  0  0  0  0  0
   19.6758   20.2375   22.9293 H   0  0  0  0  0  0  0  0  0  0  0  0
   20.9971   19.7030   21.2770 C   0  0  0  0  0  0  0  0  0  0  0  0
   21.4295   20.6474   20.9183 H   0  0  0  0  0  0  0  0  0  0  0  0
   21.7741   18.9431   21.1161 H   0  0  0  0  0  0  0  0  0  0  0  0
   19.7595   19.3941   20.3958 C   0  0  0  0  0  0  0  0  0  0  0  0
   20.0772   19.3769   19.3438 H   0  0  0  0  0  0  0  0  0  0  0  0
   19.0330   20.2145   20.4797 H   0  0  0  0  0  0  0  0  0  0  0  0
   19.0609   18.0562   20.7231 C   0  0  0  0  0  0  0  0  0  0  0  0
   18.2840   17.8377   19.9792 H   0  0  0  0  0  0  0  0  0  0  0  0
   18.5723   18.0911   21.7043 H   0  0  0  0  0  0  0  0  0  0  0  0
   19.7757   17.2233   20.7162 H   0  0  0  0  0  0  0  0  0  0  0  0
   19.0891   19.2263   26.9674 C   0  0  0  0  0  0  0  0  0  0  0  0
   19.7444   20.0308   27.3087 H   0  0  0  0  0  0  0  0  0  0  0  0
   18.0515   19.4686   27.2076 H   0  0  0  0  0  0  0  0  0  0  0  0
   19.3707   18.2889   27.4520 H   0  0  0  0  0  0  0  0  0  0  0  0
  1  2  1  0  0  0  0
  1  3  1  0  0  0  0
  1  4  1  0  0  0  0
  4  5  1  0  0  0  0
  4  6  1  0  0  0  0
  4  7  1  0  0  0  0
  7  8  1  0  0  0  0
  7  9  1  0  0  0  0
  7 10  1  0  0  0  0
 10 11  1  0  0  0  0
 10 12  1  0  0  0  0
 10 13  1  0  0  0  0
 13 14  1  0  0  0  0
 13 15  1  0  0  0  0
 13 16  1  0  0  0  0
 16 17  1  0  0  0  0
 16 18  1  0  0  0  0
 16 19  1  0  0  0  0
 19 20  1  0  0  0  0
 19 21  1  0  0  0  0
 19 22  1  0  0  0  0
  1 23  1  0  0  0  0
 23 24  1  0  0  0  0
 23 25  1  0  0  0  0
 23 26  1  0  0  0  0
M  END
> <VM2 Rank>
164

> <Conf_Id>
1607

> <Probability>
0.01

> <Sum Probability>
99.85

> <Delta G>
3.951

> <G>
79.417

> <E>
46.833

> <-TS>
32.584

> <U+W>
25.372

> <U>
74.907

> <W>
-49.535

> <W(PB)>
-51.746

> <W(SA)>
2.211

> <Valence>
4.797

> <Coulomb>
69.863

> <VdW>
0.248

> <VdW6>
-7.454

> <VdW12>
7.702

> <Bond>
0.232

> <Angle>
1.219

> <Pdih>
3.345

> <Idih>
0.000

> <Tether>
0.000

$$$$
VeraChem MOL file


 26 25  0  0  0  0  0  0  0  0999 V2000     
   19.7512   19.6322   25.7335 N   0  3  0  0  0  0  0  0  0  0  0  0
   19.3971   19.6918   26.7014 H   0  0  0  0  0  0  0  0  0  0  0  0
   19.1409   20.2570   25.1861 H   0  0  0  0  0  0  0  0  0  0  0  0
   19.6208   18.2026   25.2314 C   0  0  0  0  0  0  0  0  0  0  0  0
   18.5959   17.8789   25.4300 H   0  0  0  0  0  0  0  0  0  0  0  0
   20.2914   17.5802   25.8292 H   0  0  0  0  0  0  0  0  0  0  0  0
   19.9292   18.0009   23.7318 C   0  0  0  0  0  0  0  0  0  0  0  0
   20.9728   18.2672   23.5333 H   0  0  0  0  0  0  0  0  0  0  0  0
   19.8408   16.9303   23.5051 H   0  0  0  0  0  0  0  0  0  0  0  0
   18.9678   18.7963   22.8120 C   0  0  0  0  0  0  0  0  0  0  0  0
   19.0165   19.8708   23.0327 H   0  0  0  0  0  0  0  0  0  0  0  0
   17.9397   18.4839   23.0422 H   0  0  0  0  0  0  0  0  0  0  0  0
   19.2254   18.5609   21.3006 C   0  0  0  0  0  0  0  0  0  0  0  0
   19.6256   17.5513   21.1337 H   0  0  0  0  0  0  0  0  0  0  0  0
   18.2575   18.5842   20.7809 H   0  0  0  0  0  0  0  0  0  0  0  0
   20.1411   19.6148   20.6266 C   0  0  0  0  0  0  0  0  0  0  0  0
   19.6767   20.6081   20.7013 H   0  0  0  0  0  0  0  0  0  0  0  0
   20.2011   19.3881   19.5529 H   0  0  0  0  0  0  0  0  0  0  0  0
   21.5737   19.6755   21.2004 C   0  0  0  0  0  0  0  0  0  0  0  0
   22.0423   18.6830   21.2033 H   0  0  0  0  0  0  0  0  0  0  0  0
   21.5763   20.0679   22.2244 H   0  0  0  0  0  0  0  0  0  0  0  0
   22.2014   20.3412   20.5940 H   0  0  0  0  0  0  0  0  0  0  0  0
   21.1989   20.1067   25.6808 C   0  0  0  0  0  0  0  0  0  0  0  0
   21.8175   19.4380   26.2832 H   0  0  0  0  0  0  0  0  0  0  0  0
   21.5440   20.0989   24.6451 H   0  0  0  0  0  0  0  0  0  0  0  0
   21.2568   21.1219   26.0796 H   0  0  0  0  0  0  0  0  0  0  0  0
  1  2  1  0  0  0  0
  1  3  1  0  0  0  0
  1  4  1  0  0  0  0
  4  5  1  0  0  0  0
  4  6  1  0  0  0  0
  4  7  1  0  0  0  0
  7  8  1  0  0  0  0
  7  9  1  0  0  0  0
  7 10  1  0  0  0  0
 10 11  1  0  0  0  0
 10 12  1  0  0  0  0
 10 13  1  0  0  0  0
 13 14  1  0  0  0  0
 13 15  1  0  0  0  0
 13 16  1  0  0  0  0
 16 17  1  0  0  0  0
 16 18  1  0  0  0  0
 16 19  1  0  0  0  0
 19 20  1  0  0  0  0
 19 21  1  0  0  0  0
 19 22  1  0  0  0  0
  1 23  1  0  0  0  0
 23 24  1  0  0  0  0
 23 25  1  0  0  0  0
 23 26  1  0  0  0  0
M  END
> <VM2 Rank>
165

> <Conf_Id>
575

> <Probability>
0.01

> <Sum Probability>
99.86

> <Delta G>
3.962

> <G>
79.428

> <E>
46.535

> <-TS>
32.892

> <U+W>
25.074

> <U>
75.103

> <W>
-50.030

> <W(PB)>
-52.209

> <W(SA)>
2.179

> <Valence>
5.036

> <Coulomb>
69.777

> <VdW>
0.290

> <VdW6>
-8.613

> <VdW12>
8.903

> <Bond>
0.274

> <Angle>
1.357

> <Pdih>
3.406

> <Idih>
0.000

> <Tether>
0.000

$$$$
VeraChem MOL file


 26 25  0  0  0  0  0  0  0  0999 V2000     
   20.7016   19.2220   25.5118 N   0  3  0  0  0  0  0  0  0  0  0  0
   20.8436   20.1313   25.0469 H   0  0  0  0  0  0  0  0  0  0  0  0
   21.4928   18.6313   25.2128 H   0  0  0  0  0  0  0  0  0  0  0  0
   19.3910   18.6059   25.0615 C   0  0  0  0  0  0  0  0  0  0  0  0
   18.5798   19.2609   25.3889 H   0  0  0  0  0  0  0  0  0  0  0  0
   19.2840   17.6472   25.5752 H   0  0  0  0  0  0  0  0  0  0  0  0
   19.2961   18.3833   23.5394 C   0  0  0  0  0  0  0  0  0  0  0  0
   20.1144   17.7291   23.2186 H   0  0  0  0  0  0  0  0  0  0  0  0
   18.3660   17.8390   23.3286 H   0  0  0  0  0  0  0  0  0  0  0  0
   19.2993   19.7126   22.7416 C   0  0  0  0  0  0  0  0  0  0  0  0
   20.2089   20.2916   22.9481 H   0  0  0  0  0  0  0  0  0  0  0  0
   18.4608   20.3260   23.0999 H   0  0  0  0  0  0  0  0  0  0  0  0
   19.1411   19.5142   21.2112 C   0  0  0  0  0  0  0  0  0  0  0  0
   18.5460   18.6148   21.0018 H   0  0  0  0  0  0  0  0  0  0  0  0
   18.5537   20.3549   20.8166 H   0  0  0  0  0  0  0  0  0  0  0  0
   20.4741   19.4669   20.4210 C   0  0  0  0  0  0  0  0  0  0  0  0
   21.0130   20.4160   20.5497 H   0  0  0  0  0  0  0  0  0  0  0  0
   20.2407   19.3937   19.3495 H   0  0  0  0  0  0  0  0  0  0  0  0
   21.4028   18.2945   20.8059 C   0  0  0  0  0  0  0  0  0  0  0  0
   22.2578   18.2419   20.1196 H   0  0  0  0  0  0  0  0  0  0  0  0
   20.8723   17.3349   20.7549 H   0  0  0  0  0  0  0  0  0  0  0  0
   21.8047   18.4200   21.8185 H   0  0  0  0  0  0  0  0  0  0  0  0
   20.7021   19.3905   27.0247 C   0  0  0  0  0  0  0  0  0  0  0  0
   20.5819   18.4121   27.4950 H   0  0  0  0  0  0  0  0  0  0  0  0
   21.6502   19.8351   27.3354 H   0  0  0  0  0  0  0  0  0  0  0  0
   19.8760   20.0440   27.3135 H   0  0  0  0  0  0  0  0  0  0  0  0
  1  2  1  0  0  0  0
  1  3  1  0  0  0  0
  1  4  1  0  0  0  0
  4  5  1  0  0  0  0
  4  6  1  0  0  0  0
  4  7  1  0  0  0  0
  7  8  1  0  0  0  0
  7  9  1  0  0  0  0
  7 10  1  0  0  0  0
 10 11  1  0  0  0  0
 10 12  1  0  0  0  0
 10 13  1  0  0  0  0
 13 14  1  0  0  0  0
 13 15  1  0  0  0  0
 13 16  1  0  0  0  0
 16 17  1  0  0  0  0
 16 18  1  0  0  0  0
 16 19  1  0  0  0  0
 19 20  1  0  0  0  0
 19 21  1  0  0  0  0
 19 22  1  0  0  0  0
  1 23  1  0  0  0  0
 23 24  1  0  0  0  0
 23 25  1  0  0  0  0
 23 26  1  0  0  0  0
M  END
> <VM2 Rank>
166

> <Conf_Id>
1240

> <Probability>
0.01

> <Sum Probability>
99.87

> <Delta G>
3.962

> <G>
79.428

> <E>
46.844

> <-TS>
32.584

> <U+W>
25.383

> <U>
74.907

> <W>
-49.524

> <W(PB)>
-51.776

> <W(SA)>
2.251

> <Valence>
4.797

> <Coulomb>
69.862

> <VdW>
0.248

> <VdW6>
-7.454

> <VdW12>
7.702

> <Bond>
0.232

> <Angle>
1.220

> <Pdih>
3.345

> <Idih>
0.000

> <Tether>
0.000

$$$$
VeraChem MOL file


 26 25  0  0  0  0  0  0  0  0999 V2000     
   20.3631   18.5590   25.6923 N   0  3  0  0  0  0  0  0  0  0  0  0
   20.9139   17.7433   25.3832 H   0  0  0  0  0  0  0  0  0  0  0  0
   19.5849   18.1706   26.2475 H   0  0  0  0  0  0  0  0  0  0  0  0
   19.8243   19.3130   24.4936 C   0  0  0  0  0  0  0  0  0  0  0  0
   20.6774   19.7107   23.9389 H   0  0  0  0  0  0  0  0  0  0  0  0
   19.2324   20.1539   24.8636 H   0  0  0  0  0  0  0  0  0  0  0  0
   18.9602   18.4409   23.5627 C   0  0  0  0  0  0  0  0  0  0  0  0
   19.5361   17.5766   23.2101 H   0  0  0  0  0  0  0  0  0  0  0  0
   18.1182   18.0318   24.1366 H   0  0  0  0  0  0  0  0  0  0  0  0
   18.4016   19.2303   22.3548 C   0  0  0  0  0  0  0  0  0  0  0  0
   17.7127   20.0002   22.7290 H   0  0  0  0  0  0  0  0  0  0  0  0
   17.7891   18.5550   21.7416 H   0  0  0  0  0  0  0  0  0  0  0  0
   19.4602   19.9171   21.4495 C   0  0  0  0  0  0  0  0  0  0  0  0
   18.9125   20.4793   20.6806 H   0  0  0  0  0  0  0  0  0  0  0  0
   20.0230   20.6730   22.0135 H   0  0  0  0  0  0  0  0  0  0  0  0
   20.4318   18.9490   20.7252 C   0  0  0  0  0  0  0  0  0  0  0  0
   20.6913   19.3857   19.7506 H   0  0  0  0  0  0  0  0  0  0  0  0
   19.9288   17.9974   20.5039 H   0  0  0  0  0  0  0  0  0  0  0  0
   21.7499   18.6940   21.4933 C   0  0  0  0  0  0  0  0  0  0  0  0
   22.2717   19.6365   21.7040 H   0  0  0  0  0  0  0  0  0  0  0  0
   22.4248   18.0679   20.8956 H   0  0  0  0  0  0  0  0  0  0  0  0
   21.5823   18.1779   22.4440 H   0  0  0  0  0  0  0  0  0  0  0  0
   21.2168   19.4867   26.5456 C   0  0  0  0  0  0  0  0  0  0  0  0
   22.0512   19.8588   25.9471 H   0  0  0  0  0  0  0  0  0  0  0  0
   20.6047   20.3239   26.8883 H   0  0  0  0  0  0  0  0  0  0  0  0
   21.5983   18.9322   27.4059 H   0  0  0  0  0  0  0  0  0  0  0  0
  1  2  1  0  0  0  0
  1  3  1  0  0  0  0
  1  4  1  0  0  0  0
  4  5  1  0  0  0  0
  4  6  1  0  0  0  0
  4  7  1  0  0  0  0
  7  8  1  0  0  0  0
  7  9  1  0  0  0  0
  7 10  1  0  0  0  0
 10 11  1  0  0  0  0
 10 12  1  0  0  0  0
 10 13  1  0  0  0  0
 13 14  1  0  0  0  0
 13 15  1  0  0  0  0
 13 16  1  0  0  0  0
 16 17  1  0  0  0  0
 16 18  1  0  0  0  0
 16 19  1  0  0  0  0
 19 20  1  0  0  0  0
 19 21  1  0  0  0  0
 19 22  1  0  0  0  0
  1 23  1  0  0  0  0
 23 24  1  0  0  0  0
 23 25  1  0  0  0  0
 23 26  1  0  0  0  0
M  END
> <VM2 Rank>
167

> <Conf_Id>
462

> <Probability>
0.01

> <Sum Probability>
99.87

> <Delta G>
4.004

> <G>
79.470

> <E>
46.592

> <-TS>
32.878

> <U+W>
25.130

> <U>
74.864

> <W>
-49.734

> <W(PB)>
-51.967

> <W(SA)>
2.233

> <Valence>
5.001

> <Coulomb>
70.004

> <VdW>
-0.141

> <VdW6>
-8.153

> <VdW12>
8.012

> <Bond>
0.241

> <Angle>
1.605

> <Pdih>
3.155

> <Idih>
0.000

> <Tether>
0.000

$$$$
VeraChem MOL file


 26 25  0  0  0  0  0  0  0  0999 V2000     
   19.3086   19.2021   25.9454 N   0  3  0  0  0  0  0  0  0  0  0  0
   18.5878   18.9178   26.6276 H   0  0  0  0  0  0  0  0  0  0  0  0
   18.9521   20.0743   25.5271 H   0  0  0  0  0  0  0  0  0  0  0  0
   19.4490   18.1292   24.8767 C   0  0  0  0  0  0  0  0  0  0  0  0
   18.4454   17.9033   24.5074 H   0  0  0  0  0  0  0  0  0  0  0  0
   19.8389   17.2301   25.3605 H   0  0  0  0  0  0  0  0  0  0  0  0
   20.3507   18.5032   23.6798 C   0  0  0  0  0  0  0  0  0  0  0  0
   21.3765   18.6772   24.0293 H   0  0  0  0  0  0  0  0  0  0  0  0
   20.4024   17.6382   23.0095 H   0  0  0  0  0  0  0  0  0  0  0  0
   19.8390   19.7483   22.9113 C   0  0  0  0  0  0  0  0  0  0  0  0
   19.8795   20.6138   23.5860 H   0  0  0  0  0  0  0  0  0  0  0  0
   18.7821   19.6226   22.6385 H   0  0  0  0  0  0  0  0  0  0  0  0
   20.6778   20.0804   21.6494 C   0  0  0  0  0  0  0  0  0  0  0  0
   20.7232   21.1735   21.5465 H   0  0  0  0  0  0  0  0  0  0  0  0
   21.7179   19.7534   21.7854 H   0  0  0  0  0  0  0  0  0  0  0  0
   20.1087   19.5114   20.3243 C   0  0  0  0  0  0  0  0  0  0  0  0
   20.7362   19.8663   19.4948 H   0  0  0  0  0  0  0  0  0  0  0  0
   19.1067   19.9261   20.1458 H   0  0  0  0  0  0  0  0  0  0  0  0
   20.0418   17.9694   20.2695 C   0  0  0  0  0  0  0  0  0  0  0  0
   21.0168   17.5217   20.5012 H   0  0  0  0  0  0  0  0  0  0  0  0
   19.7488   17.6339   19.2663 H   0  0  0  0  0  0  0  0  0  0  0  0
   19.2993   17.5769   20.9752 H   0  0  0  0  0  0  0  0  0  0  0  0
   20.6324   19.4460   26.6606 C   0  0  0  0  0  0  0  0  0  0  0  0
   21.3703   19.8067   25.9412 H   0  0  0  0  0  0  0  0  0  0  0  0
   20.4839   20.1954   27.4414 H   0  0  0  0  0  0  0  0  0  0  0  0
   20.9762   18.5108   27.1077 H   0  0  0  0  0  0  0  0  0  0  0  0
  1  2  1  0  0  0  0
  1  3  1  0  0  0  0
  1  4  1  0  0  0  0
  4  5  1  0  0  0  0
  4  6  1  0  0  0  0
  4  7  1  0  0  0  0
  7  8  1  0  0  0  0
  7  9  1  0  0  0  0
  7 10  1  0  0  0  0
 10 11  1  0  0  0  0
 10 12  1  0  0  0  0
 10 13  1  0  0  0  0
 13 14  1  0  0  0  0
 13 15  1  0  0  0  0
 13 16  1  0  0  0  0
 16 17  1  0  0  0  0
 16 18  1  0  0  0  0
 16 19  1  0  0  0  0
 19 20  1  0  0  0  0
 19 21  1  0  0  0  0
 19 22  1  0  0  0  0
  1 23  1  0  0  0  0
 23 24  1  0  0  0  0
 23 25  1  0  0  0  0
 23 26  1  0  0  0  0
M  END
> <VM2 Rank>
168

> <Conf_Id>
833

> <Probability>
0.01

> <Sum Probability>
99.88

> <Delta G>
4.021

> <G>
79.487

> <E>
46.635

> <-TS>
32.852

> <U+W>
25.173

> <U>
74.855

> <W>
-49.681

> <W(PB)>
-51.895

> <W(SA)>
2.214

> <Valence>
5.096

> <Coulomb>
69.227

> <VdW>
0.531

> <VdW6>
-8.269

> <VdW12>
8.800

> <Bond>
0.274

> <Angle>
1.324

> <Pdih>
3.499

> <Idih>
0.000

> <Tether>
0.000

$$$$
VeraChem MOL file


 26 25  0  0  0  0  0  0  0  0999 V2000     
   19.2889   18.3574   25.6041 N   0  3  0  0  0  0  0  0  0  0  0  0
   19.8665   17.5028   25.6235 H   0  0  0  0  0  0  0  0  0  0  0  0
   18.3153   18.0231   25.6827 H   0  0  0  0  0  0  0  0  0  0  0  0
   19.4718   19.0856   24.2830 C   0  0  0  0  0  0  0  0  0  0  0  0
   18.8815   20.0045   24.3218 H   0  0  0  0  0  0  0  0  0  0  0  0
   19.0489   18.4481   23.5053 H   0  0  0  0  0  0  0  0  0  0  0  0
   20.9381   19.4216   23.9345 C   0  0  0  0  0  0  0  0  0  0  0  0
   21.3304   20.1001   24.7029 H   0  0  0  0  0  0  0  0  0  0  0  0
   21.5559   18.5151   23.9777 H   0  0  0  0  0  0  0  0  0  0  0  0
   21.0970   20.1076   22.5536 C   0  0  0  0  0  0  0  0  0  0  0  0
   22.0084   20.7206   22.5858 H   0  0  0  0  0  0  0  0  0  0  0  0
   20.2760   20.8168   22.3837 H   0  0  0  0  0  0  0  0  0  0  0  0
   21.2397   19.1339   21.3520 C   0  0  0  0  0  0  0  0  0  0  0  0
   21.4543   19.7241   20.4504 H   0  0  0  0  0  0  0  0  0  0  0  0
   22.1249   18.5026   21.5098 H   0  0  0  0  0  0  0  0  0  0  0  0
   20.0233   18.2198   21.0624 C   0  0  0  0  0  0  0  0  0  0  0  0
   19.8560   17.5314   21.9003 H   0  0  0  0  0  0  0  0  0  0  0  0
   20.2671   17.5812   20.2018 H   0  0  0  0  0  0  0  0  0  0  0  0
   18.7286   19.0017   20.7421 C   0  0  0  0  0  0  0  0  0  0  0  0
   18.8800   19.6809   19.8932 H   0  0  0  0  0  0  0  0  0  0  0  0
   18.3897   19.5972   21.5981 H   0  0  0  0  0  0  0  0  0  0  0  0
   17.9177   18.3109   20.4775 H   0  0  0  0  0  0  0  0  0  0  0  0
   19.6207   19.2623   26.7853 C   0  0  0  0  0  0  0  0  0  0  0  0
   19.4407   18.7170   27.7144 H   0  0  0  0  0  0  0  0  0  0  0  0
   20.6703   19.5580   26.7312 H   0  0  0  0  0  0  0  0  0  0  0  0
   18.9832   20.1484   26.7486 H   0  0  0  0  0  0  0  0  0  0  0  0
  1  2  1  0  0  0  0
  1  3  1  0  0  0  0
  1  4  1  0  0  0  0
  4  5  1  0  0  0  0
  4  6  1  0  0  0  0
  4  7  1  0  0  0  0
  7  8  1  0  0  0  0
  7  9  1  0  0  0  0
  7 10  1  0  0  0  0
 10 11  1  0  0  0  0
 10 12  1  0  0  0  0
 10 13  1  0  0  0  0
 13 14  1  0  0  0  0
 13 15  1  0  0  0  0
 13 16  1  0  0  0  0
 16 17  1  0  0  0  0
 16 18  1  0  0  0  0
 16 19  1  0  0  0  0
 19 20  1  0  0  0  0
 19 21  1  0  0  0  0
 19 22  1  0  0  0  0
  1 23  1  0  0  0  0
 23 24  1  0  0  0  0
 23 25  1  0  0  0  0
 23 26  1  0  0  0  0
M  END
> <VM2 Rank>
169

> <Conf_Id>
749

> <Probability>
0.01

> <Sum Probability>
99.89

> <Delta G>
4.026

> <G>
79.492

> <E>
46.319

> <-TS>
33.173

> <U+W>
24.857

> <U>
74.834

> <W>
-49.977

> <W(PB)>
-52.172

> <W(SA)>
2.195

> <Valence>
4.933

> <Coulomb>
69.669

> <VdW>
0.232

> <VdW6>
-8.762

> <VdW12>
8.993

> <Bond>
0.278

> <Angle>
1.765

> <Pdih>
2.890

> <Idih>
0.000

> <Tether>
0.000

$$$$
VeraChem MOL file


 26 25  0  0  0  0  0  0  0  0999 V2000     
   19.9230   19.1874   26.1207 N   0  3  0  0  0  0  0  0  0  0  0  0
   20.1123   19.9404   26.8012 H   0  0  0  0  0  0  0  0  0  0  0  0
   20.3252   18.3376   26.5455 H   0  0  0  0  0  0  0  0  0  0  0  0
   20.6218   19.5005   24.8084 C   0  0  0  0  0  0  0  0  0  0  0  0
   21.6553   19.7658   25.0453 H   0  0  0  0  0  0  0  0  0  0  0  0
   20.1371   20.3781   24.3748 H   0  0  0  0  0  0  0  0  0  0  0  0
   20.6231   18.3386   23.7919 C   0  0  0  0  0  0  0  0  0  0  0  0
   21.0601   17.4522   24.2703 H   0  0  0  0  0  0  0  0  0  0  0  0
   19.5937   18.0720   23.5317 H   0  0  0  0  0  0  0  0  0  0  0  0
   21.4379   18.6659   22.5146 C   0  0  0  0  0  0  0  0  0  0  0  0
   21.5444   17.7607   21.9012 H   0  0  0  0  0  0  0  0  0  0  0  0
   22.4578   18.9355   22.8224 H   0  0  0  0  0  0  0  0  0  0  0  0
   20.8611   19.8188   21.6474 C   0  0  0  0  0  0  0  0  0  0  0  0
   20.3647   20.5710   22.2735 H   0  0  0  0  0  0  0  0  0  0  0  0
   21.7049   20.3419   21.1764 H   0  0  0  0  0  0  0  0  0  0  0  0
   19.9073   19.3664   20.5120 C   0  0  0  0  0  0  0  0  0  0  0  0
   20.4420   18.6957   19.8250 H   0  0  0  0  0  0  0  0  0  0  0  0
   19.6310   20.2497   19.9193 H   0  0  0  0  0  0  0  0  0  0  0  0
   18.6147   18.6766   21.0000 C   0  0  0  0  0  0  0  0  0  0  0  0
   18.8272   17.6888   21.4263 H   0  0  0  0  0  0  0  0  0  0  0  0
   17.9208   18.5274   20.1628 H   0  0  0  0  0  0  0  0  0  0  0  0
   18.1018   19.2837   21.7572 H   0  0  0  0  0  0  0  0  0  0  0  0
   18.4191   19.0357   25.9219 C   0  0  0  0  0  0  0  0  0  0  0  0
   18.2254   18.1959   25.2517 H   0  0  0  0  0  0  0  0  0  0  0  0
   17.9481   18.8491   26.8896 H   0  0  0  0  0  0  0  0  0  0  0  0
   18.0199   19.9555   25.4890 H   0  0  0  0  0  0  0  0  0  0  0  0
  1  2  1  0  0  0  0
  1  3  1  0  0  0  0
  1  4  1  0  0  0  0
  4  5  1  0  0  0  0
  4  6  1  0  0  0  0
  4  7  1  0  0  0  0
  7  8  1  0  0  0  0
  7  9  1  0  0  0  0
  7 10  1  0  0  0  0
 10 11  1  0  0  0  0
 10 12  1  0  0  0  0
 10 13  1  0  0  0  0
 13 14  1  0  0  0  0
 13 15  1  0  0  0  0
 13 16  1  0  0  0  0
 16 17  1  0  0  0  0
 16 18  1  0  0  0  0
 16 19  1  0  0  0  0
 19 20  1  0  0  0  0
 19 21  1  0  0  0  0
 19 22  1  0  0  0  0
  1 23  1  0  0  0  0
 23 24  1  0  0  0  0
 23 25  1  0  0  0  0
 23 26  1  0  0  0  0
M  END
> <VM2 Rank>
170

> <Conf_Id>
1595

> <Probability>
0.01

> <Sum Probability>
99.90

> <Delta G>
4.035

> <G>
79.501

> <E>
46.839

> <-TS>
32.662

> <U+W>
25.377

> <U>
75.162

> <W>
-49.786

> <W(PB)>
-51.972

> <W(SA)>
2.187

> <Valence>
5.357

> <Coulomb>
69.345

> <VdW>
0.461

> <VdW6>
-8.236

> <VdW12>
8.696

> <Bond>
0.287

> <Angle>
1.527

> <Pdih>
3.543

> <Idih>
0.000

> <Tether>
0.000

$$$$
VeraChem MOL file


 26 25  0  0  0  0  0  0  0  0999 V2000     
   20.7775   18.5090   25.6569 N   0  3  0  0  0  0  0  0  0  0  0  0
   21.7905   18.3769   25.8058 H   0  0  0  0  0  0  0  0  0  0  0  0
   20.3837   17.5556   25.6421 H   0  0  0  0  0  0  0  0  0  0  0  0
   20.5448   19.1947   24.3210 C   0  0  0  0  0  0  0  0  0  0  0  0
   21.1408   18.6609   23.5794 H   0  0  0  0  0  0  0  0  0  0  0  0
   20.9338   20.2133   24.3944 H   0  0  0  0  0  0  0  0  0  0  0  0
   19.0690   19.2310   23.8682 C   0  0  0  0  0  0  0  0  0  0  0  0
   18.6449   18.2184   23.8745 H   0  0  0  0  0  0  0  0  0  0  0  0
   18.4953   19.8110   24.6024 H   0  0  0  0  0  0  0  0  0  0  0  0
   18.8723   19.8808   22.4747 C   0  0  0  0  0  0  0  0  0  0  0  0
   19.5434   20.7421   22.3578 H   0  0  0  0  0  0  0  0  0  0  0  0
   17.8561   20.2973   22.4386 H   0  0  0  0  0  0  0  0  0  0  0  0
   19.0134   18.9070   21.2731 C   0  0  0  0  0  0  0  0  0  0  0  0
   18.2647   18.1091   21.3729 H   0  0  0  0  0  0  0  0  0  0  0  0
   18.7479   19.4483   20.3545 H   0  0  0  0  0  0  0  0  0  0  0  0
   20.4063   18.2589   21.0759 C   0  0  0  0  0  0  0  0  0  0  0  0
   20.3571   17.5906   20.2048 H   0  0  0  0  0  0  0  0  0  0  0  0
   20.6497   17.6122   21.9283 H   0  0  0  0  0  0  0  0  0  0  0  0
   21.5360   19.2880   20.8417 C   0  0  0  0  0  0  0  0  0  0  0  0
   21.6872   19.9333   21.7152 H   0  0  0  0  0  0  0  0  0  0  0  0
   21.3107   19.9288   19.9795 H   0  0  0  0  0  0  0  0  0  0  0  0
   22.4860   18.7767   20.6394 H   0  0  0  0  0  0  0  0  0  0  0  0
   20.1888   19.3206   26.8054 C   0  0  0  0  0  0  0  0  0  0  0  0
   19.1076   19.3995   26.6759 H   0  0  0  0  0  0  0  0  0  0  0  0
   20.4092   18.8161   27.7488 H   0  0  0  0  0  0  0  0  0  0  0  0
   20.6360   20.3169   26.8069 H   0  0  0  0  0  0  0  0  0  0  0  0
  1  2  1  0  0  0  0
  1  3  1  0  0  0  0
  1  4  1  0  0  0  0
  4  5  1  0  0  0  0
  4  6  1  0  0  0  0
  4  7  1  0  0  0  0
  7  8  1  0  0  0  0
  7  9  1  0  0  0  0
  7 10  1  0  0  0  0
 10 11  1  0  0  0  0
 10 12  1  0  0  0  0
 10 13  1  0  0  0  0
 13 14  1  0  0  0  0
 13 15  1  0  0  0  0
 13 16  1  0  0  0  0
 16 17  1  0  0  0  0
 16 18  1  0  0  0  0
 16 19  1  0  0  0  0
 19 20  1  0  0  0  0
 19 21  1  0  0  0  0
 19 22  1  0  0  0  0
  1 23  1  0  0  0  0
 23 24  1  0  0  0  0
 23 25  1  0  0  0  0
 23 26  1  0  0  0  0
M  END
> <VM2 Rank>
171

> <Conf_Id>
254

> <Probability>
0.01

> <Sum Probability>
99.91

> <Delta G>
4.041

> <G>
79.507

> <E>
46.335

> <-TS>
33.172

> <U+W>
24.873

> <U>
74.834

> <W>
-49.962

> <W(PB)>
-52.184

> <W(SA)>
2.222

> <Valence>
4.933

> <Coulomb>
69.669

> <VdW>
0.232

> <VdW6>
-8.762

> <VdW12>
8.994

> <Bond>
0.278

> <Angle>
1.765

> <Pdih>
2.890

> <Idih>
0.000

> <Tether>
0.000

$$$$
VeraChem MOL file


 26 25  0  0  0  0  0  0  0  0999 V2000     
   20.3080   19.6471   25.2500 N   0  3  0  0  0  0  0  0  0  0  0  0
   20.9149   20.0124   24.5013 H   0  0  0  0  0  0  0  0  0  0  0  0
   20.9478   19.2725   25.9676 H   0  0  0  0  0  0  0  0  0  0  0  0
   19.4280   18.5381   24.7072 C   0  0  0  0  0  0  0  0  0  0  0  0
   18.7430   18.9704   23.9752 H   0  0  0  0  0  0  0  0  0  0  0  0
   18.8315   18.1538   25.5386 H   0  0  0  0  0  0  0  0  0  0  0  0
   20.2137   17.3788   24.0645 C   0  0  0  0  0  0  0  0  0  0  0  0
   20.8379   16.9081   24.8356 H   0  0  0  0  0  0  0  0  0  0  0  0
   19.5005   16.6082   23.7431 H   0  0  0  0  0  0  0  0  0  0  0  0
   21.1121   17.7756   22.8624 C   0  0  0  0  0  0  0  0  0  0  0  0
   21.6558   16.8725   22.5520 H   0  0  0  0  0  0  0  0  0  0  0  0
   21.8878   18.4876   23.1742 H   0  0  0  0  0  0  0  0  0  0  0  0
   20.3479   18.3160   21.6249 C   0  0  0  0  0  0  0  0  0  0  0  0
   20.9358   18.0714   20.7292 H   0  0  0  0  0  0  0  0  0  0  0  0
   19.3918   17.7867   21.5117 H   0  0  0  0  0  0  0  0  0  0  0  0
   20.1157   19.8468   21.6393 C   0  0  0  0  0  0  0  0  0  0  0  0
   21.0767   20.3664   21.7586 H   0  0  0  0  0  0  0  0  0  0  0  0
   19.4897   20.1390   22.4897 H   0  0  0  0  0  0  0  0  0  0  0  0
   19.4382   20.3291   20.3390 C   0  0  0  0  0  0  0  0  0  0  0  0
   20.0560   20.0978   19.4615 H   0  0  0  0  0  0  0  0  0  0  0  0
   19.2818   21.4154   20.3631 H   0  0  0  0  0  0  0  0  0  0  0  0
   18.4593   19.8511   20.2033 H   0  0  0  0  0  0  0  0  0  0  0  0
   19.4443   20.7585   25.8296 C   0  0  0  0  0  0  0  0  0  0  0  0
   20.0905   21.5499   26.2158 H   0  0  0  0  0  0  0  0  0  0  0  0
   18.7992   21.1589   25.0446 H   0  0  0  0  0  0  0  0  0  0  0  0
   18.8338   20.3530   26.6394 H   0  0  0  0  0  0  0  0  0  0  0  0
  1  2  1  0  0  0  0
  1  3  1  0  0  0  0
  1  4  1  0  0  0  0
  4  5  1  0  0  0  0
  4  6  1  0  0  0  0
  4  7  1  0  0  0  0
  7  8  1  0  0  0  0
  7  9  1  0  0  0  0
  7 10  1  0  0  0  0
 10 11  1  0  0  0  0
 10 12  1  0  0  0  0
 10 13  1  0  0  0  0
 13 14  1  0  0  0  0
 13 15  1  0  0  0  0
 13 16  1  0  0  0  0
 16 17  1  0  0  0  0
 16 18  1  0  0  0  0
 16 19  1  0  0  0  0
 19 20  1  0  0  0  0
 19 21  1  0  0  0  0
 19 22  1  0  0  0  0
  1 23  1  0  0  0  0
 23 24  1  0  0  0  0
 23 25  1  0  0  0  0
 23 26  1  0  0  0  0
M  END
> <VM2 Rank>
172

> <Conf_Id>
427

> <Probability>
0.01

> <Sum Probability>
99.91

> <Delta G>
4.053

> <G>
79.519

> <E>
46.794

> <-TS>
32.725

> <U+W>
25.333

> <U>
74.862

> <W>
-49.529

> <W(PB)>
-51.763

> <W(SA)>
2.234

> <Valence>
4.457

> <Coulomb>
70.609

> <VdW>
-0.205

> <VdW6>
-8.103

> <VdW12>
7.898

> <Bond>
0.231

> <Angle>
1.446

> <Pdih>
2.780

> <Idih>
0.000

> <Tether>
0.000

$$$$
VeraChem MOL file


 26 25  0  0  0  0  0  0  0  0999 V2000     
   19.5448   19.5673   25.2231 N   0  3  0  0  0  0  0  0  0  0  0  0
   18.9478   19.0633   25.8971 H   0  0  0  0  0  0  0  0  0  0  0  0
   18.9292   19.8047   24.4313 H   0  0  0  0  0  0  0  0  0  0  0  0
   20.6707   18.6680   24.7511 C   0  0  0  0  0  0  0  0  0  0  0  0
   21.2742   18.4092   25.6249 H   0  0  0  0  0  0  0  0  0  0  0  0
   21.3009   19.2379   24.0656 H   0  0  0  0  0  0  0  0  0  0  0  0
   20.1882   17.3761   24.0636 C   0  0  0  0  0  0  0  0  0  0  0  0
   21.0659   16.7719   23.7985 H   0  0  0  0  0  0  0  0  0  0  0  0
   19.6224   16.7810   24.7927 H   0  0  0  0  0  0  0  0  0  0  0  0
   19.3135   17.5875   22.7988 C   0  0  0  0  0  0  0  0  0  0  0  0
   18.3876   18.1215   23.0505 H   0  0  0  0  0  0  0  0  0  0  0  0
   18.9912   16.5938   22.4578 H   0  0  0  0  0  0  0  0  0  0  0  0
   20.0341   18.2832   21.6138 C   0  0  0  0  0  0  0  0  0  0  0  0
   21.0845   17.9638   21.5717 H   0  0  0  0  0  0  0  0  0  0  0  0
   19.5737   17.9289   20.6810 H   0  0  0  0  0  0  0  0  0  0  0  0
   19.9433   19.8288   21.6332 C   0  0  0  0  0  0  0  0  0  0  0  0
   20.4343   20.2379   22.5231 H   0  0  0  0  0  0  0  0  0  0  0  0
   18.8897   20.1376   21.6811 H   0  0  0  0  0  0  0  0  0  0  0  0
   20.5958   20.4502   20.3800 C   0  0  0  0  0  0  0  0  0  0  0  0
   20.5221   21.5451   20.4070 H   0  0  0  0  0  0  0  0  0  0  0  0
   20.1022   20.1026   19.4631 H   0  0  0  0  0  0  0  0  0  0  0  0
   21.6595   20.1859   20.3168 H   0  0  0  0  0  0  0  0  0  0  0  0
   20.1176   20.8289   25.8533 C   0  0  0  0  0  0  0  0  0  0  0  0
   20.7192   21.3597   25.1122 H   0  0  0  0  0  0  0  0  0  0  0  0
   19.2965   21.4669   26.1877 H   0  0  0  0  0  0  0  0  0  0  0  0
   20.7408   20.5525   26.7066 H   0  0  0  0  0  0  0  0  0  0  0  0
  1  2  1  0  0  0  0
  1  3  1  0  0  0  0
  1  4  1  0  0  0  0
  4  5  1  0  0  0  0
  4  6  1  0  0  0  0
  4  7  1  0  0  0  0
  7  8  1  0  0  0  0
  7  9  1  0  0  0  0
  7 10  1  0  0  0  0
 10 11  1  0  0  0  0
 10 12  1  0  0  0  0
 10 13  1  0  0  0  0
 13 14  1  0  0  0  0
 13 15  1  0  0  0  0
 13 16  1  0  0  0  0
 16 17  1  0  0  0  0
 16 18  1  0  0  0  0
 16 19  1  0  0  0  0
 19 20  1  0  0  0  0
 19 21  1  0  0  0  0
 19 22  1  0  0  0  0
  1 23  1  0  0  0  0
 23 24  1  0  0  0  0
 23 25  1  0  0  0  0
 23 26  1  0  0  0  0
M  END
> <VM2 Rank>
173

> <Conf_Id>
418

> <Probability>
0.01

> <Sum Probability>
99.92

> <Delta G>
4.056

> <G>
79.522

> <E>
46.797

> <-TS>
32.725

> <U+W>
25.335

> <U>
74.861

> <W>
-49.526

> <W(PB)>
-51.752

> <W(SA)>
2.225

> <Valence>
4.458

> <Coulomb>
70.609

> <VdW>
-0.205

> <VdW6>
-8.103

> <VdW12>
7.898

> <Bond>
0.231

> <Angle>
1.446

> <Pdih>
2.781

> <Idih>
0.000

> <Tether>
0.000

$$$$
VeraChem MOL file


 26 25  0  0  0  0  0  0  0  0999 V2000     
   19.9546   19.1905   26.1219 N   0  3  0  0  0  0  0  0  0  0  0  0
   19.7050   18.2735   26.5234 H   0  0  0  0  0  0  0  0  0  0  0  0
   19.5691   19.8842   26.7822 H   0  0  0  0  0  0  0  0  0  0  0  0
   19.3004   19.3646   24.7617 C   0  0  0  0  0  0  0  0  0  0  0  0
   19.6257   20.3255   24.3570 H   0  0  0  0  0  0  0  0  0  0  0  0
   18.2206   19.4125   24.9238 H   0  0  0  0  0  0  0  0  0  0  0  0
   19.6065   18.2341   23.7559 C   0  0  0  0  0  0  0  0  0  0  0  0
   20.6842   18.1843   23.5703 H   0  0  0  0  0  0  0  0  0  0  0  0
   19.3264   17.2740   24.2087 H   0  0  0  0  0  0  0  0  0  0  0  0
   18.8337   18.3985   22.4223 C   0  0  0  0  0  0  0  0  0  0  0  0
   17.7613   18.4531   22.6560 H   0  0  0  0  0  0  0  0  0  0  0  0
   18.9565   17.4950   21.8094 H   0  0  0  0  0  0  0  0  0  0  0  0
   19.2236   19.6507   21.5895 C   0  0  0  0  0  0  0  0  0  0  0  0
   18.3263   19.9952   21.0570 H   0  0  0  0  0  0  0  0  0  0  0  0
   19.5121   20.4834   22.2436 H   0  0  0  0  0  0  0  0  0  0  0  0
   20.3263   19.4097   20.5268 C   0  0  0  0  0  0  0  0  0  0  0  0
   20.4585   20.3350   19.9487 H   0  0  0  0  0  0  0  0  0  0  0  0
   19.9882   18.6496   19.8087 H   0  0  0  0  0  0  0  0  0  0  0  0
   21.6946   18.9928   21.1088 C   0  0  0  0  0  0  0  0  0  0  0  0
   22.0196   19.6857   21.8957 H   0  0  0  0  0  0  0  0  0  0  0  0
   22.4612   18.9935   20.3232 H   0  0  0  0  0  0  0  0  0  0  0  0
   21.6577   17.9793   21.5261 H   0  0  0  0  0  0  0  0  0  0  0  0
   21.4681   19.3492   26.0300 C   0  0  0  0  0  0  0  0  0  0  0  0
   21.7012   20.3341   25.6196 H   0  0  0  0  0  0  0  0  0  0  0  0
   21.8984   19.2551   27.0296 H   0  0  0  0  0  0  0  0  0  0  0  0
   21.8750   18.5713   25.3810 H   0  0  0  0  0  0  0  0  0  0  0  0
  1  2  1  0  0  0  0
  1  3  1  0  0  0  0
  1  4  1  0  0  0  0
  4  5  1  0  0  0  0
  4  6  1  0  0  0  0
  4  7  1  0  0  0  0
  7  8  1  0  0  0  0
  7  9  1  0  0  0  0
  7 10  1  0  0  0  0
 10 11  1  0  0  0  0
 10 12  1  0  0  0  0
 10 13  1  0  0  0  0
 13 14  1  0  0  0  0
 13 15  1  0  0  0  0
 13 16  1  0  0  0  0
 16 17  1  0  0  0  0
 16 18  1  0  0  0  0
 16 19  1  0  0  0  0
 19 20  1  0  0  0  0
 19 21  1  0  0  0  0
 19 22  1  0  0  0  0
  1 23  1  0  0  0  0
 23 24  1  0  0  0  0
 23 25  1  0  0  0  0
 23 26  1  0  0  0  0
M  END
> <VM2 Rank>
174

> <Conf_Id>
529

> <Probability>
0.01

> <Sum Probability>
99.93

> <Delta G>
4.068

> <G>
79.534

> <E>
46.872

> <-TS>
32.663

> <U+W>
25.410

> <U>
75.162

> <W>
-49.752

> <W(PB)>
-51.930

> <W(SA)>
2.177

> <Valence>
5.357

> <Coulomb>
69.345

> <VdW>
0.460

> <VdW6>
-8.236

> <VdW12>
8.696

> <Bond>
0.287

> <Angle>
1.526

> <Pdih>
3.545

> <Idih>
0.000

> <Tether>
0.000

$$$$
VeraChem MOL file


 26 25  0  0  0  0  0  0  0  0999 V2000     
   19.9756   19.4962   26.0493 N   0  3  0  0  0  0  0  0  0  0  0  0
   19.3164   20.2187   25.7235 H   0  0  0  0  0  0  0  0  0  0  0  0
   20.3837   19.8781   26.9173 H   0  0  0  0  0  0  0  0  0  0  0  0
   21.0751   19.2875   25.0193 C   0  0  0  0  0  0  0  0  0  0  0  0
   21.7413   18.5105   25.4026 H   0  0  0  0  0  0  0  0  0  0  0  0
   21.6455   20.2178   24.9572 H   0  0  0  0  0  0  0  0  0  0  0  0
   20.5927   18.8994   23.6041 C   0  0  0  0  0  0  0  0  0  0  0  0
   21.4820   18.7297   22.9852 H   0  0  0  0  0  0  0  0  0  0  0  0
   20.0484   17.9472   23.6430 H   0  0  0  0  0  0  0  0  0  0  0  0
   19.7111   19.9909   22.9497 C   0  0  0  0  0  0  0  0  0  0  0  0
   20.2942   20.9164   22.8458 H   0  0  0  0  0  0  0  0  0  0  0  0
   18.8727   20.2305   23.6168 H   0  0  0  0  0  0  0  0  0  0  0  0
   19.1223   19.5954   21.5706 C   0  0  0  0  0  0  0  0  0  0  0  0
   18.4483   18.7347   21.6807 H   0  0  0  0  0  0  0  0  0  0  0  0
   18.4869   20.4258   21.2327 H   0  0  0  0  0  0  0  0  0  0  0  0
   20.1751   19.3146   20.4671 C   0  0  0  0  0  0  0  0  0  0  0  0
   21.0899   19.8938   20.6548 H   0  0  0  0  0  0  0  0  0  0  0  0
   19.7810   19.6767   19.5071 H   0  0  0  0  0  0  0  0  0  0  0  0
   20.5115   17.8133   20.3073 C   0  0  0  0  0  0  0  0  0  0  0  0
   20.9304   17.3836   21.2238 H   0  0  0  0  0  0  0  0  0  0  0  0
   21.2470   17.6679   19.5056 H   0  0  0  0  0  0  0  0  0  0  0  0
   19.6150   17.2370   20.0441 H   0  0  0  0  0  0  0  0  0  0  0  0
   19.2447   18.1927   26.3496 C   0  0  0  0  0  0  0  0  0  0  0  0
   19.9637   17.4527   26.7079 H   0  0  0  0  0  0  0  0  0  0  0  0
   18.4896   18.3751   27.1175 H   0  0  0  0  0  0  0  0  0  0  0  0
   18.7625   17.8311   25.4392 H   0  0  0  0  0  0  0  0  0  0  0  0
  1  2  1  0  0  0  0
  1  3  1  0  0  0  0
  1  4  1  0  0  0  0
  4  5  1  0  0  0  0
  4  6  1  0  0  0  0
  4  7  1  0  0  0  0
  7  8  1  0  0  0  0
  7  9  1  0  0  0  0
  7 10  1  0  0  0  0
 10 11  1  0  0  0  0
 10 12  1  0  0  0  0
 10 13  1  0  0  0  0
 13 14  1  0  0  0  0
 13 15  1  0  0  0  0
 13 16  1  0  0  0  0
 16 17  1  0  0  0  0
 16 18  1  0  0  0  0
 16 19  1  0  0  0  0
 19 20  1  0  0  0  0
 19 21  1  0  0  0  0
 19 22  1  0  0  0  0
  1 23  1  0  0  0  0
 23 24  1  0  0  0  0
 23 25  1  0  0  0  0
 23 26  1  0  0  0  0
M  END
> <VM2 Rank>
175

> <Conf_Id>
66

> <Probability>
0.01

> <Sum Probability>
99.94

> <Delta G>
4.069

> <G>
79.535

> <E>
46.743

> <-TS>
32.793

> <U+W>
25.281

> <U>
74.926

> <W>
-49.645

> <W(PB)>
-51.850

> <W(SA)>
2.206

> <Valence>
5.130

> <Coulomb>
69.227

> <VdW>
0.569

> <VdW6>
-8.233

> <VdW12>
8.801

> <Bond>
0.274

> <Angle>
1.422

> <Pdih>
3.434

> <Idih>
0.000

> <Tether>
0.000

$$$$
VeraChem MOL file


 26 25  0  0  0  0  0  0  0  0999 V2000     
   19.6815   18.4895   25.6682 N   0  3  0  0  0  0  0  0  0  0  0  0
   20.4811   18.2620   26.2794 H   0  0  0  0  0  0  0  0  0  0  0  0
   19.3296   17.5818   25.3270 H   0  0  0  0  0  0  0  0  0  0  0  0
   20.1400   19.3452   24.5048 C   0  0  0  0  0  0  0  0  0  0  0  0
   20.5230   20.2854   24.9094 H   0  0  0  0  0  0  0  0  0  0  0  0
   19.2653   19.5669   23.8889 H   0  0  0  0  0  0  0  0  0  0  0  0
   21.2251   18.6718   23.6429 C   0  0  0  0  0  0  0  0  0  0  0  0
   22.0900   18.4367   24.2773 H   0  0  0  0  0  0  0  0  0  0  0  0
   20.8614   17.7118   23.2571 H   0  0  0  0  0  0  0  0  0  0  0  0
   21.6963   19.5662   22.4715 C   0  0  0  0  0  0  0  0  0  0  0  0
   22.4738   19.0326   21.9076 H   0  0  0  0  0  0  0  0  0  0  0  0
   22.1881   20.4565   22.8876 H   0  0  0  0  0  0  0  0  0  0  0  0
   20.5871   20.0319   21.4895 C   0  0  0  0  0  0  0  0  0  0  0  0
   19.8455   20.6549   22.0072 H   0  0  0  0  0  0  0  0  0  0  0  0
   21.0628   20.6986   20.7568 H   0  0  0  0  0  0  0  0  0  0  0  0
   19.8838   18.8931   20.7058 C   0  0  0  0  0  0  0  0  0  0  0  0
   20.5825   18.0640   20.5272 H   0  0  0  0  0  0  0  0  0  0  0  0
   19.6105   19.2755   19.7123 H   0  0  0  0  0  0  0  0  0  0  0  0
   18.5936   18.3723   21.3815 C   0  0  0  0  0  0  0  0  0  0  0  0
   17.8791   19.1887   21.5482 H   0  0  0  0  0  0  0  0  0  0  0  0
   18.7947   17.8939   22.3454 H   0  0  0  0  0  0  0  0  0  0  0  0
   18.1024   17.6271   20.7425 H   0  0  0  0  0  0  0  0  0  0  0  0
   18.6006   19.2200   26.4528 C   0  0  0  0  0  0  0  0  0  0  0  0
   17.7523   19.4204   25.7945 H   0  0  0  0  0  0  0  0  0  0  0  0
   18.2794   18.5938   27.2881 H   0  0  0  0  0  0  0  0  0  0  0  0
   19.0057   20.1609   26.8315 H   0  0  0  0  0  0  0  0  0  0  0  0
  1  2  1  0  0  0  0
  1  3  1  0  0  0  0
  1  4  1  0  0  0  0
  4  5  1  0  0  0  0
  4  6  1  0  0  0  0
  4  7  1  0  0  0  0
  7  8  1  0  0  0  0
  7  9  1  0  0  0  0
  7 10  1  0  0  0  0
 10 11  1  0  0  0  0
 10 12  1  0  0  0  0
 10 13  1  0  0  0  0
 13 14  1  0  0  0  0
 13 15  1  0  0  0  0
 13 16  1  0  0  0  0
 16 17  1  0  0  0  0
 16 18  1  0  0  0  0
 16 19  1  0  0  0  0
 19 20  1  0  0  0  0
 19 21  1  0  0  0  0
 19 22  1  0  0  0  0
  1 23  1  0  0  0  0
 23 24  1  0  0  0  0
 23 25  1  0  0  0  0
 23 26  1  0  0  0  0
M  END
> <VM2 Rank>
176

> <Conf_Id>
1339

> <Probability>
0.01

> <Sum Probability>
99.94

> <Delta G>
4.076

> <G>
79.542

> <E>
46.664

> <-TS>
32.878

> <U+W>
25.202

> <U>
74.864

> <W>
-49.662

> <W(PB)>
-51.863

> <W(SA)>
2.201

> <Valence>
5.001

> <Coulomb>
70.004

> <VdW>
-0.141

> <VdW6>
-8.153

> <VdW12>
8.012

> <Bond>
0.241

> <Angle>
1.605

> <Pdih>
3.155

> <Idih>
0.000

> <Tether>
0.000

$$$$
VeraChem MOL file


 26 25  0  0  0  0  0  0  0  0999 V2000     
   19.8474   19.4837   26.0447 N   0  3  0  0  0  0  0  0  0  0  0  0
   19.3118   19.7713   26.8792 H   0  0  0  0  0  0  0  0  0  0  0  0
   20.3719   20.3244   25.7610 H   0  0  0  0  0  0  0  0  0  0  0  0
   18.8860   19.0689   24.9416 C   0  0  0  0  0  0  0  0  0  0  0  0
   18.1488   19.8685   24.8328 H   0  0  0  0  0  0  0  0  0  0  0  0
   18.3611   18.1730   25.2826 H   0  0  0  0  0  0  0  0  0  0  0  0
   19.5338   18.7934   23.5666 C   0  0  0  0  0  0  0  0  0  0  0  0
   20.2511   17.9670   23.6504 H   0  0  0  0  0  0  0  0  0  0  0  0
   18.7412   18.4560   22.8878 H   0  0  0  0  0  0  0  0  0  0  0  0
   20.2267   20.0419   22.9682 C   0  0  0  0  0  0  0  0  0  0  0  0
   20.9526   20.4371   23.6908 H   0  0  0  0  0  0  0  0  0  0  0  0
   19.4814   20.8350   22.8173 H   0  0  0  0  0  0  0  0  0  0  0  0
   20.9771   19.7800   21.6365 C   0  0  0  0  0  0  0  0  0  0  0  0
   21.4588   20.7216   21.3385 H   0  0  0  0  0  0  0  0  0  0  0  0
   21.7979   19.0680   21.7995 H   0  0  0  0  0  0  0  0  0  0  0  0
   20.0803   19.3055   20.4637 C   0  0  0  0  0  0  0  0  0  0  0  0
   20.4617   19.7451   19.5314 H   0  0  0  0  0  0  0  0  0  0  0  0
   19.0585   19.6919   20.5829 H   0  0  0  0  0  0  0  0  0  0  0  0
   20.0582   17.7685   20.2907 C   0  0  0  0  0  0  0  0  0  0  0  0
   21.0668   17.3820   20.0948 H   0  0  0  0  0  0  0  0  0  0  0  0
   19.4237   17.4871   19.4403 H   0  0  0  0  0  0  0  0  0  0  0  0
   19.6688   17.2580   21.1783 H   0  0  0  0  0  0  0  0  0  0  0  0
   20.7985   18.3482   26.4049 C   0  0  0  0  0  0  0  0  0  0  0  0
   21.4056   18.0955   25.5333 H   0  0  0  0  0  0  0  0  0  0  0  0
   21.4468   18.6710   27.2227 H   0  0  0  0  0  0  0  0  0  0  0  0
   20.2167   17.4783   26.7170 H   0  0  0  0  0  0  0  0  0  0  0  0
  1  2  1  0  0  0  0
  1  3  1  0  0  0  0
  1  4  1  0  0  0  0
  4  5  1  0  0  0  0
  4  6  1  0  0  0  0
  4  7  1  0  0  0  0
  7  8  1  0  0  0  0
  7  9  1  0  0  0  0
  7 10  1  0  0  0  0
 10 11  1  0  0  0  0
 10 12  1  0  0  0  0
 10 13  1  0  0  0  0
 13 14  1  0  0  0  0
 13 15  1  0  0  0  0
 13 16  1  0  0  0  0
 16 17  1  0  0  0  0
 16 18  1  0  0  0  0
 16 19  1  0  0  0  0
 19 20  1  0  0  0  0
 19 21  1  0  0  0  0
 19 22  1  0  0  0  0
  1 23  1  0  0  0  0
 23 24  1  0  0  0  0
 23 25  1  0  0  0  0
 23 26  1  0  0  0  0
M  END
> <VM2 Rank>
177

> <Conf_Id>
1555

> <Probability>
0.01

> <Sum Probability>
99.95

> <Delta G>
4.093

> <G>
79.559

> <E>
46.767

> <-TS>
32.792

> <U+W>
25.305

> <U>
74.926

> <W>
-49.621

> <W(PB)>
-51.836

> <W(SA)>
2.215

> <Valence>
5.130

> <Coulomb>
69.227

> <VdW>
0.569

> <VdW6>
-8.233

> <VdW12>
8.801

> <Bond>
0.274

> <Angle>
1.422

> <Pdih>
3.434

> <Idih>
0.000

> <Tether>
0.000

$$$$
VeraChem MOL file


 26 25  0  0  0  0  0  0  0  0999 V2000     
   19.7387   18.2025   25.8555 N   0  3  0  0  0  0  0  0  0  0  0  0
   20.2477   17.3659   25.5309 H   0  0  0  0  0  0  0  0  0  0  0  0
   18.8845   17.8368   26.3055 H   0  0  0  0  0  0  0  0  0  0  0  0
   19.3554   19.0766   24.6730 C   0  0  0  0  0  0  0  0  0  0  0  0
   18.8603   19.9700   25.0616 H   0  0  0  0  0  0  0  0  0  0  0  0
   18.6273   18.5159   24.0826 H   0  0  0  0  0  0  0  0  0  0  0  0
   20.5377   19.4842   23.7675 C   0  0  0  0  0  0  0  0  0  0  0  0
   21.2629   20.0576   24.3589 H   0  0  0  0  0  0  0  0  0  0  0  0
   21.0609   18.5851   23.4244 H   0  0  0  0  0  0  0  0  0  0  0  0
   20.0928   20.3521   22.5627 C   0  0  0  0  0  0  0  0  0  0  0  0
   20.9768   20.7665   22.0589 H   0  0  0  0  0  0  0  0  0  0  0  0
   19.5424   21.2194   22.9533 H   0  0  0  0  0  0  0  0  0  0  0  0
   19.1971   19.6208   21.5253 C   0  0  0  0  0  0  0  0  0  0  0  0
   18.5761   18.8573   22.0107 H   0  0  0  0  0  0  0  0  0  0  0  0
   18.4901   20.3534   21.1119 H   0  0  0  0  0  0  0  0  0  0  0  0
   19.9640   18.9946   20.3324 C   0  0  0  0  0  0  0  0  0  0  0  0
   20.4993   19.7817   19.7831 H   0  0  0  0  0  0  0  0  0  0  0  0
   19.2303   18.5785   19.6277 H   0  0  0  0  0  0  0  0  0  0  0  0
   20.9564   17.8793   20.7274 C   0  0  0  0  0  0  0  0  0  0  0  0
   21.8114   18.2849   21.2819 H   0  0  0  0  0  0  0  0  0  0  0  0
   21.3537   17.3850   19.8314 H   0  0  0  0  0  0  0  0  0  0  0  0
   20.4685   17.1139   21.3445 H   0  0  0  0  0  0  0  0  0  0  0  0
   20.5659   18.9799   26.8733 C   0  0  0  0  0  0  0  0  0  0  0  0
   20.7876   18.3310   27.7235 H   0  0  0  0  0  0  0  0  0  0  0  0
   21.4982   19.3065   26.4085 H   0  0  0  0  0  0  0  0  0  0  0  0
   19.9956   19.8480   27.2110 H   0  0  0  0  0  0  0  0  0  0  0  0
  1  2  1  0  0  0  0
  1  3  1  0  0  0  0
  1  4  1  0  0  0  0
  4  5  1  0  0  0  0
  4  6  1  0  0  0  0
  4  7  1  0  0  0  0
  7  8  1  0  0  0  0
  7  9  1  0  0  0  0
  7 10  1  0  0  0  0
 10 11  1  0  0  0  0
 10 12  1  0  0  0  0
 10 13  1  0  0  0  0
 13 14  1  0  0  0  0
 13 15  1  0  0  0  0
 13 16  1  0  0  0  0
 16 17  1  0  0  0  0
 16 18  1  0  0  0  0
 16 19  1  0  0  0  0
 19 20  1  0  0  0  0
 19 21  1  0  0  0  0
 19 22  1  0  0  0  0
  1 23  1  0  0  0  0
 23 24  1  0  0  0  0
 23 25  1  0  0  0  0
 23 26  1  0  0  0  0
M  END
> <VM2 Rank>
178

> <Conf_Id>
1624

> <Probability>
0.01

> <Sum Probability>
99.96

> <Delta G>
4.228

> <G>
79.694

> <E>
46.985

> <-TS>
32.709

> <U+W>
25.523

> <U>
75.336

> <W>
-49.813

> <W(PB)>
-52.045

> <W(SA)>
2.231

> <Valence>
5.408

> <Coulomb>
69.355

> <VdW>
0.572

> <VdW6>
-8.078

> <VdW12>
8.650

> <Bond>
0.286

> <Angle>
1.495

> <Pdih>
3.627

> <Idih>
0.000

> <Tether>
0.000

$$$$
VeraChem MOL file


 26 25  0  0  0  0  0  0  0  0999 V2000     
   18.9808   19.3523   25.0074 N   0  3  0  0  0  0  0  0  0  0  0  0
   17.9825   19.1070   25.1022 H   0  0  0  0  0  0  0  0  0  0  0  0
   19.0174   20.0635   24.2626 H   0  0  0  0  0  0  0  0  0  0  0  0
   19.7719   18.1226   24.5897 C   0  0  0  0  0  0  0  0  0  0  0  0
   19.2602   17.6703   23.7378 H   0  0  0  0  0  0  0  0  0  0  0  0
   19.7315   17.4084   25.4159 H   0  0  0  0  0  0  0  0  0  0  0  0
   21.2456   18.3882   24.2131 C   0  0  0  0  0  0  0  0  0  0  0  0
   21.7859   18.7166   25.1104 H   0  0  0  0  0  0  0  0  0  0  0  0
   21.7089   17.4370   23.9200 H   0  0  0  0  0  0  0  0  0  0  0  0
   21.4657   19.4328   23.0861 C   0  0  0  0  0  0  0  0  0  0  0  0
   22.5493   19.5947   23.0025 H   0  0  0  0  0  0  0  0  0  0  0  0
   21.0488   20.4074   23.3728 H   0  0  0  0  0  0  0  0  0  0  0  0
   20.9447   19.0102   21.6871 C   0  0  0  0  0  0  0  0  0  0  0  0
   21.5476   19.5309   20.9301 H   0  0  0  0  0  0  0  0  0  0  0  0
   21.1217   17.9376   21.5278 H   0  0  0  0  0  0  0  0  0  0  0  0
   19.4571   19.3517   21.4292 C   0  0  0  0  0  0  0  0  0  0  0  0
   19.2850   20.4217   21.6107 H   0  0  0  0  0  0  0  0  0  0  0  0
   18.8065   18.8026   22.1187 H   0  0  0  0  0  0  0  0  0  0  0  0
   19.0404   19.0109   19.9825 C   0  0  0  0  0  0  0  0  0  0  0  0
   19.1726   17.9409   19.7755 H   0  0  0  0  0  0  0  0  0  0  0  0
   19.6376   19.5760   19.2550 H   0  0  0  0  0  0  0  0  0  0  0  0
   17.9842   19.2582   19.8146 H   0  0  0  0  0  0  0  0  0  0  0  0
   19.5017   19.9212   26.3219 C   0  0  0  0  0  0  0  0  0  0  0  0
   19.4368   19.1533   27.0957 H   0  0  0  0  0  0  0  0  0  0  0  0
   20.5406   20.2319   26.1940 H   0  0  0  0  0  0  0  0  0  0  0  0
   18.8927   20.7826   26.6051 H   0  0  0  0  0  0  0  0  0  0  0  0
  1  2  1  0  0  0  0
  1  3  1  0  0  0  0
  1  4  1  0  0  0  0
  4  5  1  0  0  0  0
  4  6  1  0  0  0  0
  4  7  1  0  0  0  0
  7  8  1  0  0  0  0
  7  9  1  0  0  0  0
  7 10  1  0  0  0  0
 10 11  1  0  0  0  0
 10 12  1  0  0  0  0
 10 13  1  0  0  0  0
 13 14  1  0  0  0  0
 13 15  1  0  0  0  0
 13 16  1  0  0  0  0
 16 17  1  0  0  0  0
 16 18  1  0  0  0  0
 16 19  1  0  0  0  0
 19 20  1  0  0  0  0
 19 21  1  0  0  0  0
 19 22  1  0  0  0  0
  1 23  1  0  0  0  0
 23 24  1  0  0  0  0
 23 25  1  0  0  0  0
 23 26  1  0  0  0  0
M  END
> <VM2 Rank>
179

> <Conf_Id>
1824

> <Probability>
0.01

> <Sum Probability>
99.96

> <Delta G>
4.289

> <G>
79.755

> <E>
46.886

> <-TS>
32.870

> <U+W>
25.424

> <U>
75.499

> <W>
-50.075

> <W(PB)>
-52.287

> <W(SA)>
2.213

> <Valence>
4.692

> <Coulomb>
70.717

> <VdW>
0.089

> <VdW6>
-8.740

> <VdW12>
8.830

> <Bond>
0.270

> <Angle>
1.624

> <Pdih>
2.799

> <Idih>
0.000

> <Tether>
0.000

$$$$
VeraChem MOL file


 26 25  0  0  0  0  0  0  0  0999 V2000     
   20.9191   19.5523   25.0760 N   0  3  0  0  0  0  0  0  0  0  0  0
   20.7902   20.2466   24.3254 H   0  0  0  0  0  0  0  0  0  0  0  0
   21.9373   19.5152   25.2421 H   0  0  0  0  0  0  0  0  0  0  0  0
   20.4266   18.1903   24.6128 C   0  0  0  0  0  0  0  0  0  0  0  0
   21.0780   17.8581   23.8020 H   0  0  0  0  0  0  0  0  0  0  0  0
   20.5540   17.4933   25.4449 H   0  0  0  0  0  0  0  0  0  0  0  0
   18.9597   18.1524   24.1322 C   0  0  0  0  0  0  0  0  0  0  0  0
   18.7217   17.1288   23.8145 H   0  0  0  0  0  0  0  0  0  0  0  0
   18.3024   18.3573   24.9872 H   0  0  0  0  0  0  0  0  0  0  0  0
   18.6105   19.1382   22.9850 C   0  0  0  0  0  0  0  0  0  0  0  0
   18.7987   20.1752   23.2931 H   0  0  0  0  0  0  0  0  0  0  0  0
   17.5252   19.0761   22.8246 H   0  0  0  0  0  0  0  0  0  0  0  0
   19.3034   18.8407   21.6290 C   0  0  0  0  0  0  0  0  0  0  0  0
   19.3608   17.7557   21.4657 H   0  0  0  0  0  0  0  0  0  0  0  0
   18.6613   19.2325   20.8278 H   0  0  0  0  0  0  0  0  0  0  0  0
   20.7043   19.4807   21.4732 C   0  0  0  0  0  0  0  0  0  0  0  0
   21.4034   19.0714   22.2107 H   0  0  0  0  0  0  0  0  0  0  0  0
   20.6410   20.5620   21.6582 H   0  0  0  0  0  0  0  0  0  0  0  0
   21.2820   19.2420   20.0619 C   0  0  0  0  0  0  0  0  0  0  0  0
   22.2746   19.7011   19.9664 H   0  0  0  0  0  0  0  0  0  0  0  0
   20.6344   19.6781   19.2901 H   0  0  0  0  0  0  0  0  0  0  0  0
   21.3861   18.1690   19.8543 H   0  0  0  0  0  0  0  0  0  0  0  0
   20.2025   19.9934   26.3469 C   0  0  0  0  0  0  0  0  0  0  0  0
   19.1336   20.0865   26.1445 H   0  0  0  0  0  0  0  0  0  0  0  0
   20.3686   19.2492   27.1287 H   0  0  0  0  0  0  0  0  0  0  0  0
   20.6017   20.9588   26.6657 H   0  0  0  0  0  0  0  0  0  0  0  0
  1  2  1  0  0  0  0
  1  3  1  0  0  0  0
  1  4  1  0  0  0  0
  4  5  1  0  0  0  0
  4  6  1  0  0  0  0
  4  7  1  0  0  0  0
  7  8  1  0  0  0  0
  7  9  1  0  0  0  0
  7 10  1  0  0  0  0
 10 11  1  0  0  0  0
 10 12  1  0  0  0  0
 10 13  1  0  0  0  0
 13 14  1  0  0  0  0
 13 15  1  0  0  0  0
 13 16  1  0  0  0  0
 16 17  1  0  0  0  0
 16 18  1  0  0  0  0
 16 19  1  0  0  0  0
 19 20  1  0  0  0  0
 19 21  1  0  0  0  0
 19 22  1  0  0  0  0
  1 23  1  0  0  0  0
 23 24  1  0  0  0  0
 23 25  1  0  0  0  0
 23 26  1  0  0  0  0
M  END
> <VM2 Rank>
180

> <Conf_Id>
838

> <Probability>
0.00

> <Sum Probability>
99.97

> <Delta G>
4.386

> <G>
79.852

> <E>
46.983

> <-TS>
32.870

> <U+W>
25.521

> <U>
75.498

> <W>
-49.977

> <W(PB)>
-52.163

> <W(SA)>
2.185

> <Valence>
4.692

> <Coulomb>
70.717

> <VdW>
0.089

> <VdW6>
-8.740

> <VdW12>
8.830

> <Bond>
0.270

> <Angle>
1.623

> <Pdih>
2.800

> <Idih>
0.000

> <Tether>
0.000

$$$$
VeraChem MOL file


 26 25  0  0  0  0  0  0  0  0999 V2000     
   20.1351   19.2912   25.5461 N   0  3  0  0  0  0  0  0  0  0  0  0
   20.8923   19.8845   25.1753 H   0  0  0  0  0  0  0  0  0  0  0  0
   20.5974   18.6049   26.1624 H   0  0  0  0  0  0  0  0  0  0  0  0
   19.4315   18.5791   24.4078 C   0  0  0  0  0  0  0  0  0  0  0  0
   18.9490   19.3365   23.7856 H   0  0  0  0  0  0  0  0  0  0  0  0
   18.6523   17.9480   24.8424 H   0  0  0  0  0  0  0  0  0  0  0  0
   20.3691   17.7142   23.5404 C   0  0  0  0  0  0  0  0  0  0  0  0
   20.8244   16.9387   24.1705 H   0  0  0  0  0  0  0  0  0  0  0  0
   19.7760   17.1750   22.7918 H   0  0  0  0  0  0  0  0  0  0  0  0
   21.4909   18.5173   22.8346 C   0  0  0  0  0  0  0  0  0  0  0  0
   22.0791   17.8295   22.2116 H   0  0  0  0  0  0  0  0  0  0  0  0
   22.1901   18.8934   23.5935 H   0  0  0  0  0  0  0  0  0  0  0  0
   21.0208   19.7129   21.9619 C   0  0  0  0  0  0  0  0  0  0  0  0
   20.4889   20.4563   22.5704 H   0  0  0  0  0  0  0  0  0  0  0  0
   21.9241   20.2259   21.6036 H   0  0  0  0  0  0  0  0  0  0  0  0
   20.1755   19.3271   20.7200 C   0  0  0  0  0  0  0  0  0  0  0  0
   20.5004   18.3552   20.3235 H   0  0  0  0  0  0  0  0  0  0  0  0
   20.3778   20.0589   19.9253 H   0  0  0  0  0  0  0  0  0  0  0  0
   18.6501   19.3197   20.9752 C   0  0  0  0  0  0  0  0  0  0  0  0
   18.1080   19.1311   20.0395 H   0  0  0  0  0  0  0  0  0  0  0  0
   18.3109   20.2879   21.3656 H   0  0  0  0  0  0  0  0  0  0  0  0
   18.3529   18.5418   21.6858 H   0  0  0  0  0  0  0  0  0  0  0  0
   19.1351   20.1285   26.3310 C   0  0  0  0  0  0  0  0  0  0  0  0
   18.3608   19.4745   26.7382 H   0  0  0  0  0  0  0  0  0  0  0  0
   19.6550   20.6365   27.1463 H   0  0  0  0  0  0  0  0  0  0  0  0
   18.6834   20.8667   25.6647 H   0  0  0  0  0  0  0  0  0  0  0  0
  1  2  1  0  0  0  0
  1  3  1  0  0  0  0
  1  4  1  0  0  0  0
  4  5  1  0  0  0  0
  4  6  1  0  0  0  0
  4  7  1  0  0  0  0
  7  8  1  0  0  0  0
  7  9  1  0  0  0  0
  7 10  1  0  0  0  0
 10 11  1  0  0  0  0
 10 12  1  0  0  0  0
 10 13  1  0  0  0  0
 13 14  1  0  0  0  0
 13 15  1  0  0  0  0
 13 16  1  0  0  0  0
 16 17  1  0  0  0  0
 16 18  1  0  0  0  0
 16 19  1  0  0  0  0
 19 20  1  0  0  0  0
 19 21  1  0  0  0  0
 19 22  1  0  0  0  0
  1 23  1  0  0  0  0
 23 24  1  0  0  0  0
 23 25  1  0  0  0  0
 23 26  1  0  0  0  0
M  END
> <VM2 Rank>
181

> <Conf_Id>
249

> <Probability>
0.00

> <Sum Probability>
99.97

> <Delta G>
4.477

> <G>
79.943

> <E>
46.915

> <-TS>
33.028

> <U+W>
25.453

> <U>
75.077

> <W>
-49.624

> <W(PB)>
-51.822

> <W(SA)>
2.198

> <Valence>
5.122

> <Coulomb>
70.113

> <VdW>
-0.157

> <VdW6>
-8.845

> <VdW12>
8.687

> <Bond>
0.261

> <Angle>
1.747

> <Pdih>
3.115

> <Idih>
0.000

> <Tether>
0.000

$$$$
VeraChem MOL file


 26 25  0  0  0  0  0  0  0  0999 V2000     
   19.7661   19.2524   25.5332 N   0  3  0  0  0  0  0  0  0  0  0  0
   19.4144   18.4806   26.1206 H   0  0  0  0  0  0  0  0  0  0  0  0
   18.9300   19.6784   25.1060 H   0  0  0  0  0  0  0  0  0  0  0  0
   20.6798   18.7102   24.4519 C   0  0  0  0  0  0  0  0  0  0  0  0
   21.5408   18.2513   24.9445 H   0  0  0  0  0  0  0  0  0  0  0  0
   21.0369   19.5558   23.8594 H   0  0  0  0  0  0  0  0  0  0  0  0
   20.0051   17.6760   23.5275 C   0  0  0  0  0  0  0  0  0  0  0  0
   20.7479   17.2771   22.8262 H   0  0  0  0  0  0  0  0  0  0  0  0
   19.6776   16.8184   24.1300 H   0  0  0  0  0  0  0  0  0  0  0  0
   18.7932   18.2342   22.7391 C   0  0  0  0  0  0  0  0  0  0  0  0
   17.9800   18.4516   23.4445 H   0  0  0  0  0  0  0  0  0  0  0  0
   18.4054   17.4439   22.0817 H   0  0  0  0  0  0  0  0  0  0  0  0
   19.0650   19.5076   21.8927 C   0  0  0  0  0  0  0  0  0  0  0  0
   18.1023   19.8247   21.4683 H   0  0  0  0  0  0  0  0  0  0  0  0
   19.3873   20.3407   22.5314 H   0  0  0  0  0  0  0  0  0  0  0  0
   20.0567   19.3146   20.7157 C   0  0  0  0  0  0  0  0  0  0  0  0
   19.7630   19.9942   19.9034 H   0  0  0  0  0  0  0  0  0  0  0  0
   19.9690   18.2992   20.3048 H   0  0  0  0  0  0  0  0  0  0  0  0
   21.5287   19.6218   21.0770 C   0  0  0  0  0  0  0  0  0  0  0  0
   21.9304   18.9175   21.8125 H   0  0  0  0  0  0  0  0  0  0  0  0
   21.6316   20.6365   21.4829 H   0  0  0  0  0  0  0  0  0  0  0  0
   22.1622   19.5566   20.1830 H   0  0  0  0  0  0  0  0  0  0  0  0
   20.5133   20.2731   26.3798 C   0  0  0  0  0  0  0  0  0  0  0  0
   19.8437   20.6561   27.1531 H   0  0  0  0  0  0  0  0  0  0  0  0
   21.3761   19.7911   26.8448 H   0  0  0  0  0  0  0  0  0  0  0  0
   20.8474   21.0939   25.7413 H   0  0  0  0  0  0  0  0  0  0  0  0
  1  2  1  0  0  0  0
  1  3  1  0  0  0  0
  1  4  1  0  0  0  0
  4  5  1  0  0  0  0
  4  6  1  0  0  0  0
  4  7  1  0  0  0  0
  7  8  1  0  0  0  0
  7  9  1  0  0  0  0
  7 10  1  0  0  0  0
 10 11  1  0  0  0  0
 10 12  1  0  0  0  0
 10 13  1  0  0  0  0
 13 14  1  0  0  0  0
 13 15  1  0  0  0  0
 13 16  1  0  0  0  0
 16 17  1  0  0  0  0
 16 18  1  0  0  0  0
 16 19  1  0  0  0  0
 19 20  1  0  0  0  0
 19 21  1  0  0  0  0
 19 22  1  0  0  0  0
  1 23  1  0  0  0  0
 23 24  1  0  0  0  0
 23 25  1  0  0  0  0
 23 26  1  0  0  0  0
M  END
> <VM2 Rank>
182

> <Conf_Id>
1098

> <Probability>
0.00

> <Sum Probability>
99.97

> <Delta G>
4.534

> <G>
80.000

> <E>
46.972

> <-TS>
33.028

> <U+W>
25.510

> <U>
75.077

> <W>
-49.567

> <W(PB)>
-51.764

> <W(SA)>
2.197

> <Valence>
5.122

> <Coulomb>
70.112

> <VdW>
-0.157

> <VdW6>
-8.844

> <VdW12>
8.687

> <Bond>
0.261

> <Angle>
1.746

> <Pdih>
3.115

> <Idih>
0.000

> <Tether>
0.000

$$$$
VeraChem MOL file


 26 25  0  0  0  0  0  0  0  0999 V2000     
   20.5299   19.1467   25.3554 N   0  3  0  0  0  0  0  0  0  0  0  0
   21.3450   18.8906   24.7793 H   0  0  0  0  0  0  0  0  0  0  0  0
   20.4400   18.3946   26.0560 H   0  0  0  0  0  0  0  0  0  0  0  0
   19.2817   19.2106   24.4966 C   0  0  0  0  0  0  0  0  0  0  0  0
   19.3970   20.0412   23.7989 H   0  0  0  0  0  0  0  0  0  0  0  0
   18.4420   19.4380   25.1582 H   0  0  0  0  0  0  0  0  0  0  0  0
   18.9867   17.9049   23.7290 C   0  0  0  0  0  0  0  0  0  0  0  0
   18.9393   17.0835   24.4563 H   0  0  0  0  0  0  0  0  0  0  0  0
   17.9867   17.9654   23.2798 H   0  0  0  0  0  0  0  0  0  0  0  0
   20.0289   17.5518   22.6337 C   0  0  0  0  0  0  0  0  0  0  0  0
   20.0007   16.4634   22.4857 H   0  0  0  0  0  0  0  0  0  0  0  0
   21.0481   17.7684   22.9770 H   0  0  0  0  0  0  0  0  0  0  0  0
   19.7693   18.2083   21.2505 C   0  0  0  0  0  0  0  0  0  0  0  0
   20.4957   17.8039   20.5322 H   0  0  0  0  0  0  0  0  0  0  0  0
   18.7836   17.8885   20.8853 H   0  0  0  0  0  0  0  0  0  0  0  0
   19.8385   19.7549   21.2008 C   0  0  0  0  0  0  0  0  0  0  0  0
   19.0440   20.1923   21.8184 H   0  0  0  0  0  0  0  0  0  0  0  0
   19.6224   20.0778   20.1727 H   0  0  0  0  0  0  0  0  0  0  0  0
   21.2150   20.3242   21.6140 C   0  0  0  0  0  0  0  0  0  0  0  0
   22.0168   19.9022   20.9944 H   0  0  0  0  0  0  0  0  0  0  0  0
   21.4460   20.1095   22.6634 H   0  0  0  0  0  0  0  0  0  0  0  0
   21.2334   21.4145   21.4881 H   0  0  0  0  0  0  0  0  0  0  0  0
   20.7580   20.4885   26.0370 C   0  0  0  0  0  0  0  0  0  0  0  0
   21.6587   20.4293   26.6521 H   0  0  0  0  0  0  0  0  0  0  0  0
   20.8812   21.2618   25.2756 H   0  0  0  0  0  0  0  0  0  0  0  0
   19.8965   20.7224   26.6662 H   0  0  0  0  0  0  0  0  0  0  0  0
  1  2  1  0  0  0  0
  1  3  1  0  0  0  0
  1  4  1  0  0  0  0
  4  5  1  0  0  0  0
  4  6  1  0  0  0  0
  4  7  1  0  0  0  0
  7  8  1  0  0  0  0
  7  9  1  0  0  0  0
  7 10  1  0  0  0  0
 10 11  1  0  0  0  0
 10 12  1  0  0  0  0
 10 13  1  0  0  0  0
 13 14  1  0  0  0  0
 13 15  1  0  0  0  0
 13 16  1  0  0  0  0
 16 17  1  0  0  0  0
 16 18  1  0  0  0  0
 16 19  1  0  0  0  0
 19 20  1  0  0  0  0
 19 21  1  0  0  0  0
 19 22  1  0  0  0  0
  1 23  1  0  0  0  0
 23 24  1  0  0  0  0
 23 25  1  0  0  0  0
 23 26  1  0  0  0  0
M  END
> <VM2 Rank>
183

> <Conf_Id>
854

> <Probability>
0.00

> <Sum Probability>
99.98

> <Delta G>
4.582

> <G>
80.048

> <E>
46.787

> <-TS>
33.262

> <U+W>
25.325

> <U>
75.173

> <W>
-49.848

> <W(PB)>
-52.020

> <W(SA)>
2.172

> <Valence>
4.878

> <Coulomb>
70.674

> <VdW>
-0.379

> <VdW6>
-9.130

> <VdW12>
8.751

> <Bond>
0.264

> <Angle>
1.818

> <Pdih>
2.796

> <Idih>
0.000

> <Tether>
0.000

$$$$
VeraChem MOL file


 26 25  0  0  0  0  0  0  0  0999 V2000     
   19.2348   19.3517   25.1764 N   0  3  0  0  0  0  0  0  0  0  0  0
   18.5495   19.1178   25.9123 H   0  0  0  0  0  0  0  0  0  0  0  0
   18.6938   19.3944   24.3010 H   0  0  0  0  0  0  0  0  0  0  0  0
   20.2813   18.2538   25.0880 C   0  0  0  0  0  0  0  0  0  0  0  0
   19.7642   17.2924   25.1401 H   0  0  0  0  0  0  0  0  0  0  0  0
   20.9119   18.3422   25.9763 H   0  0  0  0  0  0  0  0  0  0  0  0
   21.1707   18.2792   23.8240 C   0  0  0  0  0  0  0  0  0  0  0  0
   21.5235   19.2967   23.6167 H   0  0  0  0  0  0  0  0  0  0  0  0
   22.0739   17.6962   24.0471 H   0  0  0  0  0  0  0  0  0  0  0  0
   20.5087   17.6546   22.5667 C   0  0  0  0  0  0  0  0  0  0  0  0
   20.2243   16.6183   22.7961 H   0  0  0  0  0  0  0  0  0  0  0  0
   21.2643   17.5789   21.7735 H   0  0  0  0  0  0  0  0  0  0  0  0
   19.2647   18.3964   22.0090 C   0  0  0  0  0  0  0  0  0  0  0  0
   18.9155   17.8603   21.1157 H   0  0  0  0  0  0  0  0  0  0  0  0
   18.4385   18.3235   22.7269 H   0  0  0  0  0  0  0  0  0  0  0  0
   19.4955   19.8823   21.6311 C   0  0  0  0  0  0  0  0  0  0  0  0
   19.7680   20.4680   22.5177 H   0  0  0  0  0  0  0  0  0  0  0  0
   18.5469   20.3040   21.2704 H   0  0  0  0  0  0  0  0  0  0  0  0
   20.5711   20.0745   20.5382 C   0  0  0  0  0  0  0  0  0  0  0  0
   21.5636   19.7701   20.8929 H   0  0  0  0  0  0  0  0  0  0  0  0
   20.6352   21.1298   20.2429 H   0  0  0  0  0  0  0  0  0  0  0  0
   20.3317   19.4890   19.6412 H   0  0  0  0  0  0  0  0  0  0  0  0
   19.8813   20.6976   25.4836 C   0  0  0  0  0  0  0  0  0  0  0  0
   20.5752   20.9585   24.6823 H   0  0  0  0  0  0  0  0  0  0  0  0
   19.1023   21.4595   25.5586 H   0  0  0  0  0  0  0  0  0  0  0  0
   20.4202   20.6276   26.4309 H   0  0  0  0  0  0  0  0  0  0  0  0
  1  2  1  0  0  0  0
  1  3  1  0  0  0  0
  1  4  1  0  0  0  0
  4  5  1  0  0  0  0
  4  6  1  0  0  0  0
  4  7  1  0  0  0  0
  7  8  1  0  0  0  0
  7  9  1  0  0  0  0
  7 10  1  0  0  0  0
 10 11  1  0  0  0  0
 10 12  1  0  0  0  0
 10 13  1  0  0  0  0
 13 14  1  0  0  0  0
 13 15  1  0  0  0  0
 13 16  1  0  0  0  0
 16 17  1  0  0  0  0
 16 18  1  0  0  0  0
 16 19  1  0  0  0  0
 19 20  1  0  0  0  0
 19 21  1  0  0  0  0
 19 22  1  0  0  0  0
  1 23  1  0  0  0  0
 23 24  1  0  0  0  0
 23 25  1  0  0  0  0
 23 26  1  0  0  0  0
M  END
> <VM2 Rank>
184

> <Conf_Id>
241

> <Probability>
0.00

> <Sum Probability>
99.98

> <Delta G>
4.864

> <G>
80.330

> <E>
46.801

> <-TS>
33.529

> <U+W>
25.339

> <U>
75.477

> <W>
-50.138

> <W(PB)>
-52.291

> <W(SA)>
2.153

> <Valence>
4.696

> <Coulomb>
71.028

> <VdW>
-0.247

> <VdW6>
-10.025

> <VdW12>
9.778

> <Bond>
0.299

> <Angle>
1.907

> <Pdih>
2.490

> <Idih>
0.000

> <Tether>
0.000

$$$$
VeraChem MOL file


 26 25  0  0  0  0  0  0  0  0999 V2000     
   19.4831   18.2871   24.9121 N   0  3  0  0  0  0  0  0  0  0  0  0
   19.4528   17.4173   25.4676 H   0  0  0  0  0  0  0  0  0  0  0  0
   19.3949   17.9903   23.9294 H   0  0  0  0  0  0  0  0  0  0  0  0
   20.8171   18.9829   25.1272 C   0  0  0  0  0  0  0  0  0  0  0  0
   21.6020   18.2231   25.0939 H   0  0  0  0  0  0  0  0  0  0  0  0
   20.7994   19.4013   26.1367 H   0  0  0  0  0  0  0  0  0  0  0  0
   21.1549   20.1011   24.1145 C   0  0  0  0  0  0  0  0  0  0  0  0
   20.2847   20.7471   23.9465 H   0  0  0  0  0  0  0  0  0  0  0  0
   21.9124   20.7472   24.5773 H   0  0  0  0  0  0  0  0  0  0  0  0
   21.7337   19.5903   22.7675 C   0  0  0  0  0  0  0  0  0  0  0  0
   22.6697   19.0509   22.9683 H   0  0  0  0  0  0  0  0  0  0  0  0
   22.0167   20.4590   22.1570 H   0  0  0  0  0  0  0  0  0  0  0  0
   20.8068   18.6746   21.9277 C   0  0  0  0  0  0  0  0  0  0  0  0
   21.3498   18.3794   21.0190 H   0  0  0  0  0  0  0  0  0  0  0  0
   20.6099   17.7397   22.4664 H   0  0  0  0  0  0  0  0  0  0  0  0
   19.4784   19.3496   21.5106 C   0  0  0  0  0  0  0  0  0  0  0  0
   19.6942   20.2676   20.9462 H   0  0  0  0  0  0  0  0  0  0  0  0
   18.9040   19.6539   22.3943 H   0  0  0  0  0  0  0  0  0  0  0  0
   18.6098   18.4109   20.6467 C   0  0  0  0  0  0  0  0  0  0  0  0
   19.1359   18.1204   19.7279 H   0  0  0  0  0  0  0  0  0  0  0  0
   17.6748   18.9070   20.3556 H   0  0  0  0  0  0  0  0  0  0  0  0
   18.3487   17.4961   21.1943 H   0  0  0  0  0  0  0  0  0  0  0  0
   18.3242   19.1935   25.3109 C   0  0  0  0  0  0  0  0  0  0  0  0
   18.4302   19.4680   26.3627 H   0  0  0  0  0  0  0  0  0  0  0  0
   18.3363   20.0923   24.6914 H   0  0  0  0  0  0  0  0  0  0  0  0
   17.3840   18.6575   25.1632 H   0  0  0  0  0  0  0  0  0  0  0  0
  1  2  1  0  0  0  0
  1  3  1  0  0  0  0
  1  4  1  0  0  0  0
  4  5  1  0  0  0  0
  4  6  1  0  0  0  0
  4  7  1  0  0  0  0
  7  8  1  0  0  0  0
  7  9  1  0  0  0  0
  7 10  1  0  0  0  0
 10 11  1  0  0  0  0
 10 12  1  0  0  0  0
 10 13  1  0  0  0  0
 13 14  1  0  0  0  0
 13 15  1  0  0  0  0
 13 16  1  0  0  0  0
 16 17  1  0  0  0  0
 16 18  1  0  0  0  0
 16 19  1  0  0  0  0
 19 20  1  0  0  0  0
 19 21  1  0  0  0  0
 19 22  1  0  0  0  0
  1 23  1  0  0  0  0
 23 24  1  0  0  0  0
 23 25  1  0  0  0  0
 23 26  1  0  0  0  0
M  END
> <VM2 Rank>
185

> <Conf_Id>
448

> <Probability>
0.00

> <Sum Probability>
99.98

> <Delta G>
4.875

> <G>
80.341

> <E>
47.028

> <-TS>
33.313

> <U+W>
25.566

> <U>
74.993

> <W>
-49.427

> <W(PB)>
-51.599

> <W(SA)>
2.172

> <Valence>
4.235

> <Coulomb>
71.017

> <VdW>
-0.259

> <VdW6>
-9.385

> <VdW12>
9.126

> <Bond>
0.262

> <Angle>
1.598

> <Pdih>
2.376

> <Idih>
0.000

> <Tether>
0.000

$$$$
VeraChem MOL file


 26 25  0  0  0  0  0  0  0  0999 V2000     
   20.6504   18.4058   24.9535 N   0  3  0  0  0  0  0  0  0  0  0  0
   20.8651   18.1397   23.9816 H   0  0  0  0  0  0  0  0  0  0  0  0
   20.8160   17.5560   25.5161 H   0  0  0  0  0  0  0  0  0  0  0  0
   19.1920   18.8177   25.0696 C   0  0  0  0  0  0  0  0  0  0  0  0
   19.0545   19.2240   26.0749 H   0  0  0  0  0  0  0  0  0  0  0  0
   18.5802   17.9158   24.9870 H   0  0  0  0  0  0  0  0  0  0  0  0
   18.7081   19.8522   24.0278 C   0  0  0  0  0  0  0  0  0  0  0  0
   17.8056   20.3295   24.4317 H   0  0  0  0  0  0  0  0  0  0  0  0
   19.4402   20.6611   23.9165 H   0  0  0  0  0  0  0  0  0  0  0  0
   18.3396   19.2450   22.6472 C   0  0  0  0  0  0  0  0  0  0  0  0
   17.9311   20.0432   22.0122 H   0  0  0  0  0  0  0  0  0  0  0  0
   17.5196   18.5269   22.7859 H   0  0  0  0  0  0  0  0  0  0  0  0
   19.4882   18.5404   21.8810 C   0  0  0  0  0  0  0  0  0  0  0  0
   19.8309   17.6604   22.4389 H   0  0  0  0  0  0  0  0  0  0  0  0
   19.0808   18.1485   20.9386 H   0  0  0  0  0  0  0  0  0  0  0  0
   20.6796   19.4718   21.5531 C   0  0  0  0  0  0  0  0  0  0  0  0
   21.1178   19.8791   22.4727 H   0  0  0  0  0  0  0  0  0  0  0  0
   20.3236   20.3317   20.9685 H   0  0  0  0  0  0  0  0  0  0  0  0
   21.7776   18.7332   20.7588 C   0  0  0  0  0  0  0  0  0  0  0  0
   22.1783   17.8857   21.3298 H   0  0  0  0  0  0  0  0  0  0  0  0
   22.6117   19.4093   20.5304 H   0  0  0  0  0  0  0  0  0  0  0  0
   21.3863   18.3495   19.8075 H   0  0  0  0  0  0  0  0  0  0  0  0
   21.5725   19.5240   25.4259 C   0  0  0  0  0  0  0  0  0  0  0  0
   21.3400   19.7642   26.4656 H   0  0  0  0  0  0  0  0  0  0  0  0
   22.6092   19.1890   25.3484 H   0  0  0  0  0  0  0  0  0  0  0  0
   21.4235   20.4062   24.8006 H   0  0  0  0  0  0  0  0  0  0  0  0
  1  2  1  0  0  0  0
  1  3  1  0  0  0  0
  1  4  1  0  0  0  0
  4  5  1  0  0  0  0
  4  6  1  0  0  0  0
  4  7  1  0  0  0  0
  7  8  1  0  0  0  0
  7  9  1  0  0  0  0
  7 10  1  0  0  0  0
 10 11  1  0  0  0  0
 10 12  1  0  0  0  0
 10 13  1  0  0  0  0
 13 14  1  0  0  0  0
 13 15  1  0  0  0  0
 13 16  1  0  0  0  0
 16 17  1  0  0  0  0
 16 18  1  0  0  0  0
 16 19  1  0  0  0  0
 19 20  1  0  0  0  0
 19 21  1  0  0  0  0
 19 22  1  0  0  0  0
  1 23  1  0  0  0  0
 23 24  1  0  0  0  0
 23 25  1  0  0  0  0
 23 26  1  0  0  0  0
M  END
> <VM2 Rank>
186

> <Conf_Id>
1868

> <Probability>
0.00

> <Sum Probability>
99.98

> <Delta G>
4.879

> <G>
80.345

> <E>
47.032

> <-TS>
33.313

> <U+W>
25.571

> <U>
74.993

> <W>
-49.423

> <W(PB)>
-51.583

> <W(SA)>
2.161

> <Valence>
4.235

> <Coulomb>
71.017

> <VdW>
-0.259

> <VdW6>
-9.385

> <VdW12>
9.126

> <Bond>
0.262

> <Angle>
1.598

> <Pdih>
2.376

> <Idih>
0.000

> <Tether>
0.000

$$$$
VeraChem MOL file


 26 25  0  0  0  0  0  0  0  0999 V2000     
   20.6568   19.5033   25.2265 N   0  3  0  0  0  0  0  0  0  0  0  0
   21.2363   19.6653   24.3906 H   0  0  0  0  0  0  0  0  0  0  0  0
   21.3230   19.4135   26.0101 H   0  0  0  0  0  0  0  0  0  0  0  0
   19.8737   18.2103   25.0736 C   0  0  0  0  0  0  0  0  0  0  0  0
   19.1782   18.1575   25.9151 H   0  0  0  0  0  0  0  0  0  0  0  0
   20.5766   17.3790   25.1688 H   0  0  0  0  0  0  0  0  0  0  0  0
   19.0892   18.0572   23.7505 C   0  0  0  0  0  0  0  0  0  0  0  0
   18.3157   17.2955   23.9144 H   0  0  0  0  0  0  0  0  0  0  0  0
   18.5454   18.9792   23.5115 H   0  0  0  0  0  0  0  0  0  0  0  0
   19.9539   17.5954   22.5471 C   0  0  0  0  0  0  0  0  0  0  0  0
   19.2884   17.3682   21.7037 H   0  0  0  0  0  0  0  0  0  0  0  0
   20.4334   16.6406   22.8035 H   0  0  0  0  0  0  0  0  0  0  0  0
   21.0497   18.5867   22.0720 C   0  0  0  0  0  0  0  0  0  0  0  0
   21.8205   18.6839   22.8463 H   0  0  0  0  0  0  0  0  0  0  0  0
   21.5653   18.1428   21.2092 H   0  0  0  0  0  0  0  0  0  0  0  0
   20.5381   19.9934   21.6680 C   0  0  0  0  0  0  0  0  0  0  0  0
   21.3994   20.6080   21.3711 H   0  0  0  0  0  0  0  0  0  0  0  0
   20.0873   20.5021   22.5291 H   0  0  0  0  0  0  0  0  0  0  0  0
   19.5250   19.9631   20.5014 C   0  0  0  0  0  0  0  0  0  0  0  0
   19.9442   19.4478   19.6276 H   0  0  0  0  0  0  0  0  0  0  0  0
   19.2608   20.9833   20.1946 H   0  0  0  0  0  0  0  0  0  0  0  0
   18.5966   19.4538   20.7883 H   0  0  0  0  0  0  0  0  0  0  0  0
   19.7217   20.6806   25.4778 C   0  0  0  0  0  0  0  0  0  0  0  0
   19.1449   20.4918   26.3858 H   0  0  0  0  0  0  0  0  0  0  0  0
   20.3156   21.5889   25.6012 H   0  0  0  0  0  0  0  0  0  0  0  0
   19.0459   20.7955   24.6283 H   0  0  0  0  0  0  0  0  0  0  0  0
  1  2  1  0  0  0  0
  1  3  1  0  0  0  0
  1  4  1  0  0  0  0
  4  5  1  0  0  0  0
  4  6  1  0  0  0  0
  4  7  1  0  0  0  0
  7  8  1  0  0  0  0
  7  9  1  0  0  0  0
  7 10  1  0  0  0  0
 10 11  1  0  0  0  0
 10 12  1  0  0  0  0
 10 13  1  0  0  0  0
 13 14  1  0  0  0  0
 13 15  1  0  0  0  0
 13 16  1  0  0  0  0
 16 17  1  0  0  0  0
 16 18  1  0  0  0  0
 16 19  1  0  0  0  0
 19 20  1  0  0  0  0
 19 21  1  0  0  0  0
 19 22  1  0  0  0  0
  1 23  1  0  0  0  0
 23 24  1  0  0  0  0
 23 25  1  0  0  0  0
 23 26  1  0  0  0  0
M  END
> <VM2 Rank>
187

> <Conf_Id>
801

> <Probability>
0.00

> <Sum Probability>
99.98

> <Delta G>
4.885

> <G>
80.351

> <E>
46.821

> <-TS>
33.530

> <U+W>
25.359

> <U>
75.477

> <W>
-50.118

> <W(PB)>
-52.268

> <W(SA)>
2.150

> <Valence>
4.696

> <Coulomb>
71.029

> <VdW>
-0.247

> <VdW6>
-10.026

> <VdW12>
9.779

> <Bond>
0.299

> <Angle>
1.907

> <Pdih>
2.490

> <Idih>
0.000

> <Tether>
0.000

$$$$
VeraChem MOL file


 26 25  0  0  0  0  0  0  0  0999 V2000     
   20.6779   18.6680   25.5066 N   0  3  0  0  0  0  0  0  0  0  0  0
   20.9598   17.8849   24.8986 H   0  0  0  0  0  0  0  0  0  0  0  0
   20.9755   18.3910   26.4555 H   0  0  0  0  0  0  0  0  0  0  0  0
   19.1683   18.8372   25.4827 C   0  0  0  0  0  0  0  0  0  0  0  0
   18.9395   19.8750   25.7378 H   0  0  0  0  0  0  0  0  0  0  0  0
   18.7713   18.2066   26.2823 H   0  0  0  0  0  0  0  0  0  0  0  0
   18.4547   18.4410   24.1682 C   0  0  0  0  0  0  0  0  0  0  0  0
   18.6176   17.3757   23.9581 H   0  0  0  0  0  0  0  0  0  0  0  0
   17.3760   18.5464   24.3451 H   0  0  0  0  0  0  0  0  0  0  0  0
   18.8249   19.2995   22.9320 C   0  0  0  0  0  0  0  0  0  0  0  0
   19.0430   20.3302   23.2434 H   0  0  0  0  0  0  0  0  0  0  0  0
   17.9453   19.3622   22.2763 H   0  0  0  0  0  0  0  0  0  0  0  0
   19.9981   18.7156   22.1068 C   0  0  0  0  0  0  0  0  0  0  0  0
   20.8816   18.5730   22.7392 H   0  0  0  0  0  0  0  0  0  0  0  0
   19.7195   17.7206   21.7329 H   0  0  0  0  0  0  0  0  0  0  0  0
   20.3683   19.6247   20.9140 C   0  0  0  0  0  0  0  0  0  0  0  0
   20.6462   20.6229   21.2804 H   0  0  0  0  0  0  0  0  0  0  0  0
   19.4928   19.7586   20.2632 H   0  0  0  0  0  0  0  0  0  0  0  0
   21.5349   19.0399   20.0894 C   0  0  0  0  0  0  0  0  0  0  0  0
   21.7828   19.6988   19.2472 H   0  0  0  0  0  0  0  0  0  0  0  0
   21.2749   18.0547   19.6809 H   0  0  0  0  0  0  0  0  0  0  0  0
   22.4366   18.9274   20.7054 H   0  0  0  0  0  0  0  0  0  0  0  0
   21.3809   19.9640   25.1173 C   0  0  0  0  0  0  0  0  0  0  0  0
   21.0975   20.7494   25.8214 H   0  0  0  0  0  0  0  0  0  0  0  0
   22.4615   19.8094   25.1544 H   0  0  0  0  0  0  0  0  0  0  0  0
   21.0847   20.2513   24.1072 H   0  0  0  0  0  0  0  0  0  0  0  0
  1  2  1  0  0  0  0
  1  3  1  0  0  0  0
  1  4  1  0  0  0  0
  4  5  1  0  0  0  0
  4  6  1  0  0  0  0
  4  7  1  0  0  0  0
  7  8  1  0  0  0  0
  7  9  1  0  0  0  0
  7 10  1  0  0  0  0
 10 11  1  0  0  0  0
 10 12  1  0  0  0  0
 10 13  1  0  0  0  0
 13 14  1  0  0  0  0
 13 15  1  0  0  0  0
 13 16  1  0  0  0  0
 16 17  1  0  0  0  0
 16 18  1  0  0  0  0
 16 19  1  0  0  0  0
 19 20  1  0  0  0  0
 19 21  1  0  0  0  0
 19 22  1  0  0  0  0
  1 23  1  0  0  0  0
 23 24  1  0  0  0  0
 23 25  1  0  0  0  0
 23 26  1  0  0  0  0
M  END
> <VM2 Rank>
188

> <Conf_Id>
1342

> <Probability>
0.00

> <Sum Probability>
99.99

> <Delta G>
4.892

> <G>
80.358

> <E>
47.447

> <-TS>
32.911

> <U+W>
25.985

> <U>
76.026

> <W>
-50.041

> <W(PB)>
-52.258

> <W(SA)>
2.217

> <Valence>
5.957

> <Coulomb>
70.111

> <VdW>
-0.042

> <VdW6>
-8.365

> <VdW12>
8.323

> <Bond>
0.228

> <Angle>
1.342

> <Pdih>
4.387

> <Idih>
0.000

> <Tether>
0.000

$$$$
VeraChem MOL file


 26 25  0  0  0  0  0  0  0  0999 V2000     
   20.7102   19.3330   25.0661 N   0  3  0  0  0  0  0  0  0  0  0  0
   20.7352   20.0413   24.3186 H   0  0  0  0  0  0  0  0  0  0  0  0
   21.5473   18.7470   24.9238 H   0  0  0  0  0  0  0  0  0  0  0  0
   19.4574   18.4892   24.9371 C   0  0  0  0  0  0  0  0  0  0  0  0
   18.5927   19.1217   25.1527 H   0  0  0  0  0  0  0  0  0  0  0  0
   19.5135   17.7172   25.7086 H   0  0  0  0  0  0  0  0  0  0  0  0
   19.2778   17.8151   23.5604 C   0  0  0  0  0  0  0  0  0  0  0  0
   20.2228   17.3667   23.2287 H   0  0  0  0  0  0  0  0  0  0  0  0
   18.5832   16.9751   23.6928 H   0  0  0  0  0  0  0  0  0  0  0  0
   18.6883   18.7447   22.4660 C   0  0  0  0  0  0  0  0  0  0  0  0
   17.7180   19.1262   22.8128 H   0  0  0  0  0  0  0  0  0  0  0  0
   18.4614   18.1403   21.5777 H   0  0  0  0  0  0  0  0  0  0  0  0
   19.5705   19.9500   22.0436 C   0  0  0  0  0  0  0  0  0  0  0  0
   19.0446   20.5009   21.2515 H   0  0  0  0  0  0  0  0  0  0  0  0
   19.6520   20.6583   22.8772 H   0  0  0  0  0  0  0  0  0  0  0  0
   20.9870   19.5841   21.5299 C   0  0  0  0  0  0  0  0  0  0  0  0
   21.5725   19.0999   22.3216 H   0  0  0  0  0  0  0  0  0  0  0  0
   21.5213   20.5124   21.2836 H   0  0  0  0  0  0  0  0  0  0  0  0
   20.9667   18.6772   20.2787 C   0  0  0  0  0  0  0  0  0  0  0  0
   20.5402   17.6917   20.5032 H   0  0  0  0  0  0  0  0  0  0  0  0
   21.9854   18.5183   19.9021 H   0  0  0  0  0  0  0  0  0  0  0  0
   20.3776   19.1312   19.4714 H   0  0  0  0  0  0  0  0  0  0  0  0
   20.7501   19.9967   26.4352 C   0  0  0  0  0  0  0  0  0  0  0  0
   19.8708   20.6341   26.5511 H   0  0  0  0  0  0  0  0  0  0  0  0
   20.7521   19.2250   27.2081 H   0  0  0  0  0  0  0  0  0  0  0  0
   21.6568   20.6006   26.5146 H   0  0  0  0  0  0  0  0  0  0  0  0
  1  2  1  0  0  0  0
  1  3  1  0  0  0  0
  1  4  1  0  0  0  0
  4  5  1  0  0  0  0
  4  6  1  0  0  0  0
  4  7  1  0  0  0  0
  7  8  1  0  0  0  0
  7  9  1  0  0  0  0
  7 10  1  0  0  0  0
 10 11  1  0  0  0  0
 10 12  1  0  0  0  0
 10 13  1  0  0  0  0
 13 14  1  0  0  0  0
 13 15  1  0  0  0  0
 13 16  1  0  0  0  0
 16 17  1  0  0  0  0
 16 18  1  0  0  0  0
 16 19  1  0  0  0  0
 19 20  1  0  0  0  0
 19 21  1  0  0  0  0
 19 22  1  0  0  0  0
  1 23  1  0  0  0  0
 23 24  1  0  0  0  0
 23 25  1  0  0  0  0
 23 26  1  0  0  0  0
M  END
> <VM2 Rank>
189

> <Conf_Id>
283

> <Probability>
0.00

> <Sum Probability>
99.99

> <Delta G>
4.986

> <G>
80.452

> <E>
47.328

> <-TS>
33.124

> <U+W>
25.866

> <U>
75.257

> <W>
-49.391

> <W(PB)>
-51.576

> <W(SA)>
2.186

> <Valence>
4.258

> <Coulomb>
71.252

> <VdW>
-0.253

> <VdW6>
-9.003

> <VdW12>
8.750

> <Bond>
0.262

> <Angle>
1.778

> <Pdih>
2.218

> <Idih>
0.000

> <Tether>
0.000

$$$$
VeraChem MOL file


 26 25  0  0  0  0  0  0  0  0999 V2000     
   19.2302   19.1806   25.0137 N   0  3  0  0  0  0  0  0  0  0  0  0
   18.5419   18.4376   24.8174 H   0  0  0  0  0  0  0  0  0  0  0  0
   19.1139   19.8744   24.2612 H   0  0  0  0  0  0  0  0  0  0  0  0
   20.6344   18.6104   24.9787 C   0  0  0  0  0  0  0  0  0  0  0  0
   20.6828   17.8375   25.7500 H   0  0  0  0  0  0  0  0  0  0  0  0
   21.3350   19.4040   25.2498 H   0  0  0  0  0  0  0  0  0  0  0  0
   21.0433   17.9970   23.6229 C   0  0  0  0  0  0  0  0  0  0  0  0
   21.8834   17.3150   23.8096 H   0  0  0  0  0  0  0  0  0  0  0  0
   20.2350   17.3679   23.2291 H   0  0  0  0  0  0  0  0  0  0  0  0
   21.5064   19.0350   22.5658 C   0  0  0  0  0  0  0  0  0  0  0  0
   21.9131   18.4958   21.6999 H   0  0  0  0  0  0  0  0  0  0  0  0
   22.3520   19.6035   22.9769 H   0  0  0  0  0  0  0  0  0  0  0  0
   20.4291   20.0384   22.0740 C   0  0  0  0  0  0  0  0  0  0  0  0
   20.1469   20.7093   22.8947 H   0  0  0  0  0  0  0  0  0  0  0  0
   20.8859   20.6905   21.3166 H   0  0  0  0  0  0  0  0  0  0  0  0
   19.1561   19.3955   21.4651 C   0  0  0  0  0  0  0  0  0  0  0  0
   18.4626   20.1973   21.1753 H   0  0  0  0  0  0  0  0  0  0  0  0
   18.6275   18.7965   22.2173 H   0  0  0  0  0  0  0  0  0  0  0  0
   19.4482   18.5208   20.2250 C   0  0  0  0  0  0  0  0  0  0  0  0
   19.9876   19.0910   19.4576 H   0  0  0  0  0  0  0  0  0  0  0  0
   18.5121   18.1605   19.7792 H   0  0  0  0  0  0  0  0  0  0  0  0
   20.0496   17.6411   20.4859 H   0  0  0  0  0  0  0  0  0  0  0  0
   18.9603   19.8124   26.3719 C   0  0  0  0  0  0  0  0  0  0  0  0
   19.6813   20.6144   26.5446 H   0  0  0  0  0  0  0  0  0  0  0  0
   17.9464   20.2186   26.3833 H   0  0  0  0  0  0  0  0  0  0  0  0
   19.0612   19.0508   27.1483 H   0  0  0  0  0  0  0  0  0  0  0  0
  1  2  1  0  0  0  0
  1  3  1  0  0  0  0
  1  4  1  0  0  0  0
  4  5  1  0  0  0  0
  4  6  1  0  0  0  0
  4  7  1  0  0  0  0
  7  8  1  0  0  0  0
  7  9  1  0  0  0  0
  7 10  1  0  0  0  0
 10 11  1  0  0  0  0
 10 12  1  0  0  0  0
 10 13  1  0  0  0  0
 13 14  1  0  0  0  0
 13 15  1  0  0  0  0
 13 16  1  0  0  0  0
 16 17  1  0  0  0  0
 16 18  1  0  0  0  0
 16 19  1  0  0  0  0
 19 20  1  0  0  0  0
 19 21  1  0  0  0  0
 19 22  1  0  0  0  0
  1 23  1  0  0  0  0
 23 24  1  0  0  0  0
 23 25  1  0  0  0  0
 23 26  1  0  0  0  0
M  END
> <VM2 Rank>
190

> <Conf_Id>
1324

> <Probability>
0.00

> <Sum Probability>
99.99

> <Delta G>
5.111

> <G>
80.577

> <E>
47.453

> <-TS>
33.124

> <U+W>
25.991

> <U>
75.257

> <W>
-49.266

> <W(PB)>
-51.474

> <W(SA)>
2.209

> <Valence>
4.257

> <Coulomb>
71.252

> <VdW>
-0.253

> <VdW6>
-9.004

> <VdW12>
8.751

> <Bond>
0.262

> <Angle>
1.778

> <Pdih>
2.217

> <Idih>
0.000

> <Tether>
0.000

$$$$
VeraChem MOL file


 26 25  0  0  0  0  0  0  0  0999 V2000     
   20.2279   19.4191   25.7354 N   0  3  0  0  0  0  0  0  0  0  0  0
   20.8816   19.5348   26.5259 H   0  0  0  0  0  0  0  0  0  0  0  0
   19.3422   19.1162   26.1679 H   0  0  0  0  0  0  0  0  0  0  0  0
   20.7579   18.3386   24.8051 C   0  0  0  0  0  0  0  0  0  0  0  0
   21.3499   17.6650   25.4301 H   0  0  0  0  0  0  0  0  0  0  0  0
   21.4407   18.7942   24.0878 H   0  0  0  0  0  0  0  0  0  0  0  0
   19.6839   17.4837   24.0940 C   0  0  0  0  0  0  0  0  0  0  0  0
   20.1790   16.6199   23.6313 H   0  0  0  0  0  0  0  0  0  0  0  0
   19.0206   17.0645   24.8620 H   0  0  0  0  0  0  0  0  0  0  0  0
   18.8140   18.1945   23.0225 C   0  0  0  0  0  0  0  0  0  0  0  0
   18.3436   19.0975   23.4293 H   0  0  0  0  0  0  0  0  0  0  0  0
   17.9785   17.5188   22.7924 H   0  0  0  0  0  0  0  0  0  0  0  0
   19.5335   18.5006   21.6818 C   0  0  0  0  0  0  0  0  0  0  0  0
   20.1629   17.6481   21.3920 H   0  0  0  0  0  0  0  0  0  0  0  0
   18.7665   18.5876   20.8997 H   0  0  0  0  0  0  0  0  0  0  0  0
   20.3687   19.8024   21.6770 C   0  0  0  0  0  0  0  0  0  0  0  0
   21.1932   19.7350   22.3946 H   0  0  0  0  0  0  0  0  0  0  0  0
   19.7399   20.6480   21.9874 H   0  0  0  0  0  0  0  0  0  0  0  0
   20.9547   20.0951   20.2791 C   0  0  0  0  0  0  0  0  0  0  0  0
   21.5449   21.0206   20.2922 H   0  0  0  0  0  0  0  0  0  0  0  0
   20.1582   20.2149   19.5332 H   0  0  0  0  0  0  0  0  0  0  0  0
   21.6128   19.2809   19.9487 H   0  0  0  0  0  0  0  0  0  0  0  0
   20.0675   20.7560   25.0221 C   0  0  0  0  0  0  0  0  0  0  0  0
   19.3317   20.6604   24.2236 H   0  0  0  0  0  0  0  0  0  0  0  0
   19.7303   21.5051   25.7419 H   0  0  0  0  0  0  0  0  0  0  0  0
   21.0307   21.0562   24.6039 H   0  0  0  0  0  0  0  0  0  0  0  0
  1  2  1  0  0  0  0
  1  3  1  0  0  0  0
  1  4  1  0  0  0  0
  4  5  1  0  0  0  0
  4  6  1  0  0  0  0
  4  7  1  0  0  0  0
  7  8  1  0  0  0  0
  7  9  1  0  0  0  0
  7 10  1  0  0  0  0
 10 11  1  0  0  0  0
 10 12  1  0  0  0  0
 10 13  1  0  0  0  0
 13 14  1  0  0  0  0
 13 15  1  0  0  0  0
 13 16  1  0  0  0  0
 16 17  1  0  0  0  0
 16 18  1  0  0  0  0
 16 19  1  0  0  0  0
 19 20  1  0  0  0  0
 19 21  1  0  0  0  0
 19 22  1  0  0  0  0
  1 23  1  0  0  0  0
 23 24  1  0  0  0  0
 23 25  1  0  0  0  0
 23 26  1  0  0  0  0
M  END
> <VM2 Rank>
191

> <Conf_Id>
1875

> <Probability>
0.00

> <Sum Probability>
99.99

> <Delta G>
5.224

> <G>
80.690

> <E>
47.922

> <-TS>
32.768

> <U+W>
26.460

> <U>
76.751

> <W>
-50.292

> <W(PB)>
-52.453

> <W(SA)>
2.162

> <Valence>
6.849

> <Coulomb>
70.206

> <VdW>
-0.305

> <VdW6>
-9.093

> <VdW12>
8.788

> <Bond>
0.276

> <Angle>
2.525

> <Pdih>
4.048

> <Idih>
0.000

> <Tether>
0.000

$$$$
VeraChem MOL file


 26 25  0  0  0  0  0  0  0  0999 V2000     
   19.7363   18.3355   24.8558 N   0  3  0  0  0  0  0  0  0  0  0  0
   20.3991   17.5451   24.8310 H   0  0  0  0  0  0  0  0  0  0  0  0
   19.2580   18.3262   23.9431 H   0  0  0  0  0  0  0  0  0  0  0  0
   20.4894   19.6399   25.0318 C   0  0  0  0  0  0  0  0  0  0  0  0
   21.0434   19.5631   25.9708 H   0  0  0  0  0  0  0  0  0  0  0  0
   19.7610   20.4483   25.1326 H   0  0  0  0  0  0  0  0  0  0  0  0
   21.4731   19.9663   23.8883 C   0  0  0  0  0  0  0  0  0  0  0  0
   22.2178   20.6710   24.2816 H   0  0  0  0  0  0  0  0  0  0  0  0
   22.0381   19.0691   23.6054 H   0  0  0  0  0  0  0  0  0  0  0  0
   20.8138   20.6230   22.6455 C   0  0  0  0  0  0  0  0  0  0  0  0
   21.6031   20.8814   21.9261 H   0  0  0  0  0  0  0  0  0  0  0  0
   20.3646   21.5787   22.9495 H   0  0  0  0  0  0  0  0  0  0  0  0
   19.7346   19.7808   21.9181 C   0  0  0  0  0  0  0  0  0  0  0  0
   18.8758   19.6136   22.5799 H   0  0  0  0  0  0  0  0  0  0  0  0
   19.3455   20.3745   21.0792 H   0  0  0  0  0  0  0  0  0  0  0  0
   20.2643   18.4358   21.3655 C   0  0  0  0  0  0  0  0  0  0  0  0
   20.6619   17.8120   22.1758 H   0  0  0  0  0  0  0  0  0  0  0  0
   21.1005   18.6253   20.6779 H   0  0  0  0  0  0  0  0  0  0  0  0
   19.1609   17.6520   20.6236 C   0  0  0  0  0  0  0  0  0  0  0  0
   18.3220   17.4184   21.2918 H   0  0  0  0  0  0  0  0  0  0  0  0
   19.5544   16.7042   20.2337 H   0  0  0  0  0  0  0  0  0  0  0  0
   18.7706   18.2280   19.7744 H   0  0  0  0  0  0  0  0  0  0  0  0
   18.7355   18.1567   25.9885 C   0  0  0  0  0  0  0  0  0  0  0  0
   18.0270   18.9879   25.9764 H   0  0  0  0  0  0  0  0  0  0  0  0
   18.2012   17.2142   25.8495 H   0  0  0  0  0  0  0  0  0  0  0  0
   19.2704   18.1404   26.9406 H   0  0  0  0  0  0  0  0  0  0  0  0
  1  2  1  0  0  0  0
  1  3  1  0  0  0  0
  1  4  1  0  0  0  0
  4  5  1  0  0  0  0
  4  6  1  0  0  0  0
  4  7  1  0  0  0  0
  7  8  1  0  0  0  0
  7  9  1  0  0  0  0
  7 10  1  0  0  0  0
 10 11  1  0  0  0  0
 10 12  1  0  0  0  0
 10 13  1  0  0  0  0
 13 14  1  0  0  0  0
 13 15  1  0  0  0  0
 13 16  1  0  0  0  0
 16 17  1  0  0  0  0
 16 18  1  0  0  0  0
 16 19  1  0  0  0  0
 19 20  1  0  0  0  0
 19 21  1  0  0  0  0
 19 22  1  0  0  0  0
  1 23  1  0  0  0  0
 23 24  1  0  0  0  0
 23 25  1  0  0  0  0
 23 26  1  0  0  0  0
M  END
> <VM2 Rank>
192

> <Conf_Id>
766

> <Probability>
0.00

> <Sum Probability>
99.99

> <Delta G>
5.237

> <G>
80.703

> <E>
47.755

> <-TS>
32.948

> <U+W>
26.293

> <U>
74.740

> <W>
-48.447

> <W(PB)>
-50.668

> <W(SA)>
2.221

> <Valence>
3.847

> <Coulomb>
71.181

> <VdW>
-0.288

> <VdW6>
-8.401

> <VdW12>
8.113

> <Bond>
0.222

> <Angle>
1.471

> <Pdih>
2.154

> <Idih>
0.000

> <Tether>
0.000

$$$$
VeraChem MOL file


 26 25  0  0  0  0  0  0  0  0999 V2000     
   20.3907   18.3990   24.8791 N   0  3  0  0  0  0  0  0  0  0  0  0
   20.9249   18.4882   24.0024 H   0  0  0  0  0  0  0  0  0  0  0  0
   19.8956   17.4962   24.8132 H   0  0  0  0  0  0  0  0  0  0  0  0
   19.3904   19.5331   24.9926 C   0  0  0  0  0  0  0  0  0  0  0  0
   19.9408   20.4658   25.1390 H   0  0  0  0  0  0  0  0  0  0  0  0
   18.7968   19.3448   25.8908 H   0  0  0  0  0  0  0  0  0  0  0  0
   18.4452   19.6720   23.7805 C   0  0  0  0  0  0  0  0  0  0  0  0
   18.0847   18.6849   23.4647 H   0  0  0  0  0  0  0  0  0  0  0  0
   17.5531   20.2176   24.1156 H   0  0  0  0  0  0  0  0  0  0  0  0
   19.0518   20.4518   22.5828 C   0  0  0  0  0  0  0  0  0  0  0  0
   19.2862   21.4739   22.9111 H   0  0  0  0  0  0  0  0  0  0  0  0
   18.2801   20.5584   21.8078 H   0  0  0  0  0  0  0  0  0  0  0  0
   20.3212   19.8378   21.9390 C   0  0  0  0  0  0  0  0  0  0  0  0
   20.6470   20.5010   21.1255 H   0  0  0  0  0  0  0  0  0  0  0  0
   21.1473   19.8345   22.6607 H   0  0  0  0  0  0  0  0  0  0  0  0
   20.1004   18.4199   21.3597 C   0  0  0  0  0  0  0  0  0  0  0  0
   19.2939   18.4497   20.6136 H   0  0  0  0  0  0  0  0  0  0  0  0
   19.7741   17.7257   22.1442 H   0  0  0  0  0  0  0  0  0  0  0  0
   21.3834   17.8680   20.7028 C   0  0  0  0  0  0  0  0  0  0  0  0
   21.7146   18.5140   19.8792 H   0  0  0  0  0  0  0  0  0  0  0  0
   21.2080   16.8649   20.2927 H   0  0  0  0  0  0  0  0  0  0  0  0
   22.2024   17.7955   21.4301 H   0  0  0  0  0  0  0  0  0  0  0  0
   21.3250   18.4084   26.0805 C   0  0  0  0  0  0  0  0  0  0  0  0
   20.7376   18.2830   26.9928 H   0  0  0  0  0  0  0  0  0  0  0  0
   22.0390   17.5872   25.9859 H   0  0  0  0  0  0  0  0  0  0  0  0
   21.8594   19.3603   26.1126 H   0  0  0  0  0  0  0  0  0  0  0  0
  1  2  1  0  0  0  0
  1  3  1  0  0  0  0
  1  4  1  0  0  0  0
  4  5  1  0  0  0  0
  4  6  1  0  0  0  0
  4  7  1  0  0  0  0
  7  8  1  0  0  0  0
  7  9  1  0  0  0  0
  7 10  1  0  0  0  0
 10 11  1  0  0  0  0
 10 12  1  0  0  0  0
 10 13  1  0  0  0  0
 13 14  1  0  0  0  0
 13 15  1  0  0  0  0
 13 16  1  0  0  0  0
 16 17  1  0  0  0  0
 16 18  1  0  0  0  0
 16 19  1  0  0  0  0
 19 20  1  0  0  0  0
 19 21  1  0  0  0  0
 19 22  1  0  0  0  0
  1 23  1  0  0  0  0
 23 24  1  0  0  0  0
 23 25  1  0  0  0  0
 23 26  1  0  0  0  0
M  END
> <VM2 Rank>
193

> <Conf_Id>
149

> <Probability>
0.00

> <Sum Probability>
99.99

> <Delta G>
5.291

> <G>
80.757

> <E>
47.809

> <-TS>
32.948

> <U+W>
26.347

> <U>
74.740

> <W>
-48.393

> <W(PB)>
-50.619

> <W(SA)>
2.226

> <Valence>
3.847

> <Coulomb>
71.181

> <VdW>
-0.288

> <VdW6>
-8.401

> <VdW12>
8.113

> <Bond>
0.222

> <Angle>
1.471

> <Pdih>
2.154

> <Idih>
0.000

> <Tether>
0.000

$$$$
VeraChem MOL file


 26 25  0  0  0  0  0  0  0  0999 V2000     
   20.6322   18.7471   25.9146 N   0  3  0  0  0  0  0  0  0  0  0  0
   21.5453   18.8207   25.4410 H   0  0  0  0  0  0  0  0  0  0  0  0
   20.8134   18.1746   26.7542 H   0  0  0  0  0  0  0  0  0  0  0  0
   19.6310   18.0276   25.0245 C   0  0  0  0  0  0  0  0  0  0  0  0
   18.6242   18.3004   25.3505 H   0  0  0  0  0  0  0  0  0  0  0  0
   19.7609   16.9579   25.2078 H   0  0  0  0  0  0  0  0  0  0  0  0
   19.7911   18.2737   23.5075 C   0  0  0  0  0  0  0  0  0  0  0  0
   20.8014   17.9727   23.2041 H   0  0  0  0  0  0  0  0  0  0  0  0
   19.0913   17.6113   22.9812 H   0  0  0  0  0  0  0  0  0  0  0  0
   19.5251   19.7358   23.0774 C   0  0  0  0  0  0  0  0  0  0  0  0
   20.3326   20.3811   23.4474 H   0  0  0  0  0  0  0  0  0  0  0  0
   18.6012   20.0862   23.5579 H   0  0  0  0  0  0  0  0  0  0  0  0
   19.3833   19.9363   21.5462 C   0  0  0  0  0  0  0  0  0  0  0  0
   18.5233   19.3673   21.1670 H   0  0  0  0  0  0  0  0  0  0  0  0
   19.1362   20.9931   21.3744 H   0  0  0  0  0  0  0  0  0  0  0  0
   20.6544   19.6009   20.7234 C   0  0  0  0  0  0  0  0  0  0  0  0
   21.5574   19.7994   21.3173 H   0  0  0  0  0  0  0  0  0  0  0  0
   20.7028   20.2839   19.8637 H   0  0  0  0  0  0  0  0  0  0  0  0
   20.6759   18.1528   20.1801 C   0  0  0  0  0  0  0  0  0  0  0  0
   21.5759   17.9842   19.5746 H   0  0  0  0  0  0  0  0  0  0  0  0
   19.8047   17.9608   19.5404 H   0  0  0  0  0  0  0  0  0  0  0  0
   20.6752   17.4089   20.9839 H   0  0  0  0  0  0  0  0  0  0  0  0
   20.1150   20.1159   26.3434 C   0  0  0  0  0  0  0  0  0  0  0  0
   19.1700   19.9899   26.8761 H   0  0  0  0  0  0  0  0  0  0  0  0
   20.8490   20.5832   27.0036 H   0  0  0  0  0  0  0  0  0  0  0  0
   19.9613   20.7436   25.4649 H   0  0  0  0  0  0  0  0  0  0  0  0
  1  2  1  0  0  0  0
  1  3  1  0  0  0  0
  1  4  1  0  0  0  0
  4  5  1  0  0  0  0
  4  6  1  0  0  0  0
  4  7  1  0  0  0  0
  7  8  1  0  0  0  0
  7  9  1  0  0  0  0
  7 10  1  0  0  0  0
 10 11  1  0  0  0  0
 10 12  1  0  0  0  0
 10 13  1  0  0  0  0
 13 14  1  0  0  0  0
 13 15  1  0  0  0  0
 13 16  1  0  0  0  0
 16 17  1  0  0  0  0
 16 18  1  0  0  0  0
 16 19  1  0  0  0  0
 19 20  1  0  0  0  0
 19 21  1  0  0  0  0
 19 22  1  0  0  0  0
  1 23  1  0  0  0  0
 23 24  1  0  0  0  0
 23 25  1  0  0  0  0
 23 26  1  0  0  0  0
M  END
> <VM2 Rank>
194

> <Conf_Id>
550

> <Probability>
0.00

> <Sum Probability>
99.99

> <Delta G>
5.328

> <G>
80.794

> <E>
47.955

> <-TS>
32.839

> <U+W>
26.493

> <U>
76.259

> <W>
-49.766

> <W(PB)>
-51.983

> <W(SA)>
2.218

> <Valence>
6.620

> <Coulomb>
69.255

> <VdW>
0.384

> <VdW6>
-8.486

> <VdW12>
8.870

> <Bond>
0.273

> <Angle>
1.660

> <Pdih>
4.688

> <Idih>
0.000

> <Tether>
0.000

$$$$
VeraChem MOL file


 26 25  0  0  0  0  0  0  0  0999 V2000     
   19.3655   18.6176   25.8697 N   0  3  0  0  0  0  0  0  0  0  0  0
   19.2453   18.0142   26.6986 H   0  0  0  0  0  0  0  0  0  0  0  0
   18.4918   18.5087   25.3328 H   0  0  0  0  0  0  0  0  0  0  0  0
   20.5513   18.1217   25.0570 C   0  0  0  0  0  0  0  0  0  0  0  0
   20.6276   17.0465   25.2384 H   0  0  0  0  0  0  0  0  0  0  0  0
   21.4568   18.5900   25.4507 H   0  0  0  0  0  0  0  0  0  0  0  0
   20.4513   18.3412   23.5308 C   0  0  0  0  0  0  0  0  0  0  0  0
   21.3056   17.8378   23.0595 H   0  0  0  0  0  0  0  0  0  0  0  0
   19.5464   17.8444   23.1596 H   0  0  0  0  0  0  0  0  0  0  0  0
   20.4456   19.8300   23.1100 C   0  0  0  0  0  0  0  0  0  0  0  0
   21.2437   20.3564   23.6515 H   0  0  0  0  0  0  0  0  0  0  0  0
   19.5005   20.2961   23.4179 H   0  0  0  0  0  0  0  0  0  0  0  0
   20.6509   20.0660   21.5911 C   0  0  0  0  0  0  0  0  0  0  0  0
   20.6905   21.1522   21.4295 H   0  0  0  0  0  0  0  0  0  0  0  0
   21.6326   19.6855   21.2771 H   0  0  0  0  0  0  0  0  0  0  0  0
   19.5347   19.4863   20.6837 C   0  0  0  0  0  0  0  0  0  0  0  0
   19.4095   20.1516   19.8179 H   0  0  0  0  0  0  0  0  0  0  0  0
   18.5708   19.4938   21.2115 H   0  0  0  0  0  0  0  0  0  0  0  0
   19.8447   18.0678   20.1506 C   0  0  0  0  0  0  0  0  0  0  0  0
   20.7793   18.0606   19.5750 H   0  0  0  0  0  0  0  0  0  0  0  0
   19.0421   17.7249   19.4848 H   0  0  0  0  0  0  0  0  0  0  0  0
   19.9395   17.3337   20.9578 H   0  0  0  0  0  0  0  0  0  0  0  0
   19.5641   20.0595   26.3240 C   0  0  0  0  0  0  0  0  0  0  0  0
   19.6489   20.7116   25.4540 H   0  0  0  0  0  0  0  0  0  0  0  0
   18.7065   20.3641   26.9279 H   0  0  0  0  0  0  0  0  0  0  0  0
   20.4755   20.1231   26.9225 H   0  0  0  0  0  0  0  0  0  0  0  0
  1  2  1  0  0  0  0
  1  3  1  0  0  0  0
  1  4  1  0  0  0  0
  4  5  1  0  0  0  0
  4  6  1  0  0  0  0
  4  7  1  0  0  0  0
  7  8  1  0  0  0  0
  7  9  1  0  0  0  0
  7 10  1  0  0  0  0
 10 11  1  0  0  0  0
 10 12  1  0  0  0  0
 10 13  1  0  0  0  0
 13 14  1  0  0  0  0
 13 15  1  0  0  0  0
 13 16  1  0  0  0  0
 16 17  1  0  0  0  0
 16 18  1  0  0  0  0
 16 19  1  0  0  0  0
 19 20  1  0  0  0  0
 19 21  1  0  0  0  0
 19 22  1  0  0  0  0
  1 23  1  0  0  0  0
 23 24  1  0  0  0  0
 23 25  1  0  0  0  0
 23 26  1  0  0  0  0
M  END
> <VM2 Rank>
195

> <Conf_Id>
864

> <Probability>
0.00

> <Sum Probability>
99.99

> <Delta G>
5.336

> <G>
80.802

> <E>
47.963

> <-TS>
32.840

> <U+W>
26.501

> <U>
76.259

> <W>
-49.758

> <W(PB)>
-51.980

> <W(SA)>
2.222

> <Valence>
6.620

> <Coulomb>
69.255

> <VdW>
0.384

> <VdW6>
-8.486

> <VdW12>
8.870

> <Bond>
0.273

> <Angle>
1.660

> <Pdih>
4.688

> <Idih>
0.000

> <Tether>
0.000

$$$$
VeraChem MOL file


 26 25  0  0  0  0  0  0  0  0999 V2000     
   19.2970   18.5619   25.6920 N   0  3  0  0  0  0  0  0  0  0  0  0
   19.1286   17.9918   26.5360 H   0  0  0  0  0  0  0  0  0  0  0  0
   18.5949   18.2404   25.0088 H   0  0  0  0  0  0  0  0  0  0  0  0
   20.7007   18.2914   25.1748 C   0  0  0  0  0  0  0  0  0  0  0  0
   20.9704   17.2861   25.5086 H   0  0  0  0  0  0  0  0  0  0  0  0
   21.3846   18.9955   25.6552 H   0  0  0  0  0  0  0  0  0  0  0  0
   20.8642   18.3445   23.6394 C   0  0  0  0  0  0  0  0  0  0  0  0
   21.8903   18.0347   23.4015 H   0  0  0  0  0  0  0  0  0  0  0  0
   20.2071   17.5955   23.1844 H   0  0  0  0  0  0  0  0  0  0  0  0
   20.6063   19.7457   23.0289 C   0  0  0  0  0  0  0  0  0  0  0  0
   21.2272   20.4734   23.5696 H   0  0  0  0  0  0  0  0  0  0  0  0
   19.5640   20.0507   23.1870 H   0  0  0  0  0  0  0  0  0  0  0  0
   20.9489   19.8366   21.5184 C   0  0  0  0  0  0  0  0  0  0  0  0
   21.3302   20.8470   21.3158 H   0  0  0  0  0  0  0  0  0  0  0  0
   21.7748   19.1556   21.2712 H   0  0  0  0  0  0  0  0  0  0  0  0
   19.7532   19.5919   20.5623 C   0  0  0  0  0  0  0  0  0  0  0  0
   20.0962   19.7496   19.5302 H   0  0  0  0  0  0  0  0  0  0  0  0
   18.9760   20.3478   20.7423 H   0  0  0  0  0  0  0  0  0  0  0  0
   19.1305   18.1825   20.6657 C   0  0  0  0  0  0  0  0  0  0  0  0
   19.8966   17.4020   20.5725 H   0  0  0  0  0  0  0  0  0  0  0  0
   18.3956   18.0288   19.8650 H   0  0  0  0  0  0  0  0  0  0  0  0
   18.6058   18.0478   21.6192 H   0  0  0  0  0  0  0  0  0  0  0  0
   19.1073   20.0355   26.0353 C   0  0  0  0  0  0  0  0  0  0  0  0
   19.8351   20.3207   26.7981 H   0  0  0  0  0  0  0  0  0  0  0  0
   19.2538   20.6440   25.1421 H   0  0  0  0  0  0  0  0  0  0  0  0
   18.0957   20.1848   26.4193 H   0  0  0  0  0  0  0  0  0  0  0  0
  1  2  1  0  0  0  0
  1  3  1  0  0  0  0
  1  4  1  0  0  0  0
  4  5  1  0  0  0  0
  4  6  1  0  0  0  0
  4  7  1  0  0  0  0
  7  8  1  0  0  0  0
  7  9  1  0  0  0  0
  7 10  1  0  0  0  0
 10 11  1  0  0  0  0
 10 12  1  0  0  0  0
 10 13  1  0  0  0  0
 13 14  1  0  0  0  0
 13 15  1  0  0  0  0
 13 16  1  0  0  0  0
 16 17  1  0  0  0  0
 16 18  1  0  0  0  0
 16 19  1  0  0  0  0
 19 20  1  0  0  0  0
 19 21  1  0  0  0  0
 19 22  1  0  0  0  0
  1 23  1  0  0  0  0
 23 24  1  0  0  0  0
 23 25  1  0  0  0  0
 23 26  1  0  0  0  0
M  END
> <VM2 Rank>
196

> <Conf_Id>
576

> <Probability>
0.00

> <Sum Probability>
99.99

> <Delta G>
5.486

> <G>
80.952

> <E>
48.182

> <-TS>
32.770

> <U+W>
26.720

> <U>
76.621

> <W>
-49.901

> <W(PB)>
-52.078

> <W(SA)>
2.177

> <Valence>
6.730

> <Coulomb>
69.541

> <VdW>
0.350

> <VdW6>
-8.499

> <VdW12>
8.849

> <Bond>
0.279

> <Angle>
1.640

> <Pdih>
4.811

> <Idih>
0.000

> <Tether>
0.000

$$$$
VeraChem MOL file


 26 25  0  0  0  0  0  0  0  0999 V2000     
   19.9778   18.7582   26.1086 N   0  3  0  0  0  0  0  0  0  0  0  0
   20.9608   18.4478   26.0801 H   0  0  0  0  0  0  0  0  0  0  0  0
   19.5872   18.3266   26.9611 H   0  0  0  0  0  0  0  0  0  0  0  0
   19.2243   18.2404   24.8937 C   0  0  0  0  0  0  0  0  0  0  0  0
   18.3590   18.8866   24.7263 H   0  0  0  0  0  0  0  0  0  0  0  0
   18.8511   17.2471   25.1559 H   0  0  0  0  0  0  0  0  0  0  0  0
   20.0568   18.1102   23.5986 C   0  0  0  0  0  0  0  0  0  0  0  0
   20.8998   17.4298   23.7769 H   0  0  0  0  0  0  0  0  0  0  0  0
   19.4292   17.6215   22.8450 H   0  0  0  0  0  0  0  0  0  0  0  0
   20.5860   19.4601   23.0523 C   0  0  0  0  0  0  0  0  0  0  0  0
   21.3351   19.8466   23.7556 H   0  0  0  0  0  0  0  0  0  0  0  0
   19.7785   20.2044   23.0200 H   0  0  0  0  0  0  0  0  0  0  0  0
   21.2549   19.3398   21.6580 C   0  0  0  0  0  0  0  0  0  0  0  0
   22.1016   20.0393   21.6226 H   0  0  0  0  0  0  0  0  0  0  0  0
   21.6921   18.3400   21.5291 H   0  0  0  0  0  0  0  0  0  0  0  0
   20.3246   19.6738   20.4636 C   0  0  0  0  0  0  0  0  0  0  0  0
   20.9154   19.6295   19.5380 H   0  0  0  0  0  0  0  0  0  0  0  0
   19.9732   20.7116   20.5499 H   0  0  0  0  0  0  0  0  0  0  0  0
   19.1087   18.7322   20.3203 C   0  0  0  0  0  0  0  0  0  0  0  0
   18.4077   18.8557   21.1551 H   0  0  0  0  0  0  0  0  0  0  0  0
   19.4238   17.6815   20.2799 H   0  0  0  0  0  0  0  0  0  0  0  0
   18.5595   18.9531   19.3960 H   0  0  0  0  0  0  0  0  0  0  0  0
   19.8750   20.2754   26.2219 C   0  0  0  0  0  0  0  0  0  0  0  0
   18.8225   20.5574   26.2961 H   0  0  0  0  0  0  0  0  0  0  0  0
   20.4068   20.6026   27.1181 H   0  0  0  0  0  0  0  0  0  0  0  0
   20.3195   20.7416   25.3417 H   0  0  0  0  0  0  0  0  0  0  0  0
  1  2  1  0  0  0  0
  1  3  1  0  0  0  0
  1  4  1  0  0  0  0
  4  5  1  0  0  0  0
  4  6  1  0  0  0  0
  4  7  1  0  0  0  0
  7  8  1  0  0  0  0
  7  9  1  0  0  0  0
  7 10  1  0  0  0  0
 10 11  1  0  0  0  0
 10 12  1  0  0  0  0
 10 13  1  0  0  0  0
 13 14  1  0  0  0  0
 13 15  1  0  0  0  0
 13 16  1  0  0  0  0
 16 17  1  0  0  0  0
 16 18  1  0  0  0  0
 16 19  1  0  0  0  0
 19 20  1  0  0  0  0
 19 21  1  0  0  0  0
 19 22  1  0  0  0  0
  1 23  1  0  0  0  0
 23 24  1  0  0  0  0
 23 25  1  0  0  0  0
 23 26  1  0  0  0  0
M  END
> <VM2 Rank>
197

> <Conf_Id>
222

> <Probability>
0.00

> <Sum Probability>
99.99

> <Delta G>
5.503

> <G>
80.969

> <E>
48.050

> <-TS>
32.919

> <U+W>
26.588

> <U>
76.255

> <W>
-49.666

> <W(PB)>
-51.863

> <W(SA)>
2.196

> <Valence>
6.727

> <Coulomb>
69.126

> <VdW>
0.402

> <VdW6>
-8.493

> <VdW12>
8.895

> <Bond>
0.275

> <Angle>
1.572

> <Pdih>
4.880

> <Idih>
0.000

> <Tether>
0.000

$$$$
VeraChem MOL file


 26 25  0  0  0  0  0  0  0  0999 V2000     
   20.1770   18.4731   26.1292 N   0  3  0  0  0  0  0  0  0  0  0  0
   20.6830   18.4903   27.0289 H   0  0  0  0  0  0  0  0  0  0  0  0
   19.9174   17.4841   25.9933 H   0  0  0  0  0  0  0  0  0  0  0  0
   21.1152   18.9250   25.0182 C   0  0  0  0  0  0  0  0  0  0  0  0
   22.0260   18.3308   25.1286 H   0  0  0  0  0  0  0  0  0  0  0  0
   21.3787   19.9716   25.1894 H   0  0  0  0  0  0  0  0  0  0  0  0
   20.5882   18.7370   23.5781 C   0  0  0  0  0  0  0  0  0  0  0  0
   21.4481   18.4932   22.9422 H   0  0  0  0  0  0  0  0  0  0  0  0
   19.9090   17.8754   23.5366 H   0  0  0  0  0  0  0  0  0  0  0  0
   19.9010   20.0040   23.0123 C   0  0  0  0  0  0  0  0  0  0  0  0
   20.6397   20.8142   22.9406 H   0  0  0  0  0  0  0  0  0  0  0  0
   19.1369   20.3578   23.7144 H   0  0  0  0  0  0  0  0  0  0  0  0
   19.2246   19.8020   21.6314 C   0  0  0  0  0  0  0  0  0  0  0  0
   18.4138   19.0649   21.7122 H   0  0  0  0  0  0  0  0  0  0  0  0
   18.7364   20.7488   21.3621 H   0  0  0  0  0  0  0  0  0  0  0  0
   20.1894   19.4144   20.4808 C   0  0  0  0  0  0  0  0  0  0  0  0
   21.1890   19.8333   20.6625 H   0  0  0  0  0  0  0  0  0  0  0  0
   19.8312   19.8815   19.5527 H   0  0  0  0  0  0  0  0  0  0  0  0
   20.2805   17.8891   20.2403 C   0  0  0  0  0  0  0  0  0  0  0  0
   20.6619   17.3539   21.1166 H   0  0  0  0  0  0  0  0  0  0  0  0
   20.9538   17.6728   19.4007 H   0  0  0  0  0  0  0  0  0  0  0  0
   19.2958   17.4721   19.9921 H   0  0  0  0  0  0  0  0  0  0  0  0
   18.9321   19.3455   26.2266 C   0  0  0  0  0  0  0  0  0  0  0  0
   19.2324   20.3877   26.3548 H   0  0  0  0  0  0  0  0  0  0  0  0
   18.3440   19.2352   25.3135 H   0  0  0  0  0  0  0  0  0  0  0  0
   18.3376   19.0241   27.0847 H   0  0  0  0  0  0  0  0  0  0  0  0
  1  2  1  0  0  0  0
  1  3  1  0  0  0  0
  1  4  1  0  0  0  0
  4  5  1  0  0  0  0
  4  6  1  0  0  0  0
  4  7  1  0  0  0  0
  7  8  1  0  0  0  0
  7  9  1  0  0  0  0
  7 10  1  0  0  0  0
 10 11  1  0  0  0  0
 10 12  1  0  0  0  0
 10 13  1  0  0  0  0
 13 14  1  0  0  0  0
 13 15  1  0  0  0  0
 13 16  1  0  0  0  0
 16 17  1  0  0  0  0
 16 18  1  0  0  0  0
 16 19  1  0  0  0  0
 19 20  1  0  0  0  0
 19 21  1  0  0  0  0
 19 22  1  0  0  0  0
  1 23  1  0  0  0  0
 23 24  1  0  0  0  0
 23 25  1  0  0  0  0
 23 26  1  0  0  0  0
M  END
> <VM2 Rank>
198

> <Conf_Id>
162

> <Probability>
0.00

> <Sum Probability>
99.99

> <Delta G>
5.602

> <G>
81.068

> <E>
48.306

> <-TS>
32.762

> <U+W>
26.844

> <U>
76.536

> <W>
-49.693

> <W(PB)>
-51.899

> <W(SA)>
2.206

> <Valence>
6.954

> <Coulomb>
69.035

> <VdW>
0.547

> <VdW6>
-8.376

> <VdW12>
8.924

> <Bond>
0.281

> <Angle>
1.723

> <Pdih>
4.950

> <Idih>
0.000

> <Tether>
0.000

$$$$
VeraChem MOL file


 26 25  0  0  0  0  0  0  0  0999 V2000     
   20.0294   18.5147   26.0450 N   0  3  0  0  0  0  0  0  0  0  0  0
   20.8776   18.0047   25.7553 H   0  0  0  0  0  0  0  0  0  0  0  0
   19.6491   17.9720   26.8365 H   0  0  0  0  0  0  0  0  0  0  0  0
   19.0139   18.5357   24.9142 C   0  0  0  0  0  0  0  0  0  0  0  0
   18.3911   19.4263   25.0297 H   0  0  0  0  0  0  0  0  0  0  0  0
   18.3720   17.6617   25.0513 H   0  0  0  0  0  0  0  0  0  0  0  0
   19.6056   18.4750   23.4882 C   0  0  0  0  0  0  0  0  0  0  0  0
   20.1863   17.5505   23.3728 H   0  0  0  0  0  0  0  0  0  0  0  0
   18.7629   18.4082   22.7900 H   0  0  0  0  0  0  0  0  0  0  0  0
   20.4818   19.6962   23.1176 C   0  0  0  0  0  0  0  0  0  0  0  0
   21.3126   19.7745   23.8300 H   0  0  0  0  0  0  0  0  0  0  0  0
   19.8915   20.6166   23.2256 H   0  0  0  0  0  0  0  0  0  0  0  0
   21.0919   19.6376   21.6929 C   0  0  0  0  0  0  0  0  0  0  0  0
   21.7227   20.5285   21.5669 H   0  0  0  0  0  0  0  0  0  0  0  0
   21.7739   18.7801   21.6098 H   0  0  0  0  0  0  0  0  0  0  0  0
   20.0559   19.6133   20.5393 C   0  0  0  0  0  0  0  0  0  0  0  0
   20.4439   20.2162   19.7063 H   0  0  0  0  0  0  0  0  0  0  0  0
   19.1217   20.0995   20.8531 H   0  0  0  0  0  0  0  0  0  0  0  0
   19.7694   18.1903   20.0048 C   0  0  0  0  0  0  0  0  0  0  0  0
   20.6839   17.7298   19.6088 H   0  0  0  0  0  0  0  0  0  0  0  0
   19.0357   18.2265   19.1892 H   0  0  0  0  0  0  0  0  0  0  0  0
   19.3703   17.5296   20.7823 H   0  0  0  0  0  0  0  0  0  0  0  0
   20.3600   19.9272   26.5150 C   0  0  0  0  0  0  0  0  0  0  0  0
   20.7821   20.5010   25.6889 H   0  0  0  0  0  0  0  0  0  0  0  0
   19.4455   20.4091   26.8675 H   0  0  0  0  0  0  0  0  0  0  0  0
   21.0836   19.8714   27.3314 H   0  0  0  0  0  0  0  0  0  0  0  0
  1  2  1  0  0  0  0
  1  3  1  0  0  0  0
  1  4  1  0  0  0  0
  4  5  1  0  0  0  0
  4  6  1  0  0  0  0
  4  7  1  0  0  0  0
  7  8  1  0  0  0  0
  7  9  1  0  0  0  0
  7 10  1  0  0  0  0
 10 11  1  0  0  0  0
 10 12  1  0  0  0  0
 10 13  1  0  0  0  0
 13 14  1  0  0  0  0
 13 15  1  0  0  0  0
 13 16  1  0  0  0  0
 16 17  1  0  0  0  0
 16 18  1  0  0  0  0
 16 19  1  0  0  0  0
 19 20  1  0  0  0  0
 19 21  1  0  0  0  0
 19 22  1  0  0  0  0
  1 23  1  0  0  0  0
 23 24  1  0  0  0  0
 23 25  1  0  0  0  0
 23 26  1  0  0  0  0
M  END
> <VM2 Rank>
199

> <Conf_Id>
217

> <Probability>
0.00

> <Sum Probability>
100.00

> <Delta G>
5.622

> <G>
81.088

> <E>
48.324

> <-TS>
32.763

> <U+W>
26.863

> <U>
76.526

> <W>
-49.664

> <W(PB)>
-51.856

> <W(SA)>
2.192

> <Valence>
6.989

> <Coulomb>
69.059

> <VdW>
0.479

> <VdW6>
-8.314

> <VdW12>
8.793

> <Bond>
0.275

> <Angle>
1.646

> <Pdih>
5.068

> <Idih>
0.000

> <Tether>
0.000

$$$$
VeraChem MOL file


 26 25  0  0  0  0  0  0  0  0999 V2000     
   19.9920   18.5111   26.0438 N   0  3  0  0  0  0  0  0  0  0  0  0
   20.4177   18.0509   26.8640 H   0  0  0  0  0  0  0  0  0  0  0  0
   19.2866   17.8424   25.6993 H   0  0  0  0  0  0  0  0  0  0  0  0
   21.0590   18.7445   24.9866 C   0  0  0  0  0  0  0  0  0  0  0  0
   21.8528   18.0170   25.1747 H   0  0  0  0  0  0  0  0  0  0  0  0
   21.4797   19.7415   25.1389 H   0  0  0  0  0  0  0  0  0  0  0  0
   20.5930   18.5756   23.5232 C   0  0  0  0  0  0  0  0  0  0  0  0
   21.4785   18.6853   22.8862 H   0  0  0  0  0  0  0  0  0  0  0  0
   20.2205   17.5536   23.3742 H   0  0  0  0  0  0  0  0  0  0  0  0
   19.5162   19.5972   23.0835 C   0  0  0  0  0  0  0  0  0  0  0  0
   19.8993   20.6170   23.2261 H   0  0  0  0  0  0  0  0  0  0  0  0
   18.6389   19.5007   23.7353 H   0  0  0  0  0  0  0  0  0  0  0  0
   19.0320   19.4268   21.6199 C   0  0  0  0  0  0  0  0  0  0  0  0
   18.5452   18.4497   21.4952 H   0  0  0  0  0  0  0  0  0  0  0  0
   18.2445   20.1726   21.4438 H   0  0  0  0  0  0  0  0  0  0  0  0
   20.1298   19.6210   20.5420 C   0  0  0  0  0  0  0  0  0  0  0  0
   20.9221   20.2837   20.9173 H   0  0  0  0  0  0  0  0  0  0  0  0
   19.6873   20.1394   19.6797 H   0  0  0  0  0  0  0  0  0  0  0  0
   20.7348   18.2894   20.0387 C   0  0  0  0  0  0  0  0  0  0  0  0
   21.2038   17.7172   20.8469 H   0  0  0  0  0  0  0  0  0  0  0  0
   21.5015   18.4794   19.2765 H   0  0  0  0  0  0  0  0  0  0  0  0
   19.9625   17.6565   19.5826 H   0  0  0  0  0  0  0  0  0  0  0  0
   19.3511   19.8246   26.4791 C   0  0  0  0  0  0  0  0  0  0  0  0
   18.8808   20.3070   25.6212 H   0  0  0  0  0  0  0  0  0  0  0  0
   18.5984   19.6182   27.2432 H   0  0  0  0  0  0  0  0  0  0  0  0
   20.1226   20.4787   26.8911 H   0  0  0  0  0  0  0  0  0  0  0  0
  1  2  1  0  0  0  0
  1  3  1  0  0  0  0
  1  4  1  0  0  0  0
  4  5  1  0  0  0  0
  4  6  1  0  0  0  0
  4  7  1  0  0  0  0
  7  8  1  0  0  0  0
  7  9  1  0  0  0  0
  7 10  1  0  0  0  0
 10 11  1  0  0  0  0
 10 12  1  0  0  0  0
 10 13  1  0  0  0  0
 13 14  1  0  0  0  0
 13 15  1  0  0  0  0
 13 16  1  0  0  0  0
 16 17  1  0  0  0  0
 16 18  1  0  0  0  0
 16 19  1  0  0  0  0
 19 20  1  0  0  0  0
 19 21  1  0  0  0  0
 19 22  1  0  0  0  0
  1 23  1  0  0  0  0
 23 24  1  0  0  0  0
 23 25  1  0  0  0  0
 23 26  1  0  0  0  0
M  END
> <VM2 Rank>
200

> <Conf_Id>
1566

> <Probability>
0.00

> <Sum Probability>
100.00

> <Delta G>
5.714

> <G>
81.180

> <E>
48.417

> <-TS>
32.763

> <U+W>
26.955

> <U>
76.526

> <W>
-49.572

> <W(PB)>
-51.787

> <W(SA)>
2.215

> <Valence>
6.989

> <Coulomb>
69.059

> <VdW>
0.479

> <VdW6>
-8.314

> <VdW12>
8.793

> <Bond>
0.275

> <Angle>
1.646

> <Pdih>
5.068

> <Idih>
0.000

> <Tether>
0.000

$$$$
VeraChem MOL file


 26 25  0  0  0  0  0  0  0  0999 V2000     
   20.6442   19.2736   25.7239 N   0  3  0  0  0  0  0  0  0  0  0  0
   21.5724   19.5386   26.0898 H   0  0  0  0  0  0  0  0  0  0  0  0
   20.2268   18.6901   26.4650 H   0  0  0  0  0  0  0  0  0  0  0  0
   20.8189   18.4551   24.4521 C   0  0  0  0  0  0  0  0  0  0  0  0
   21.5408   17.6698   24.6909 H   0  0  0  0  0  0  0  0  0  0  0  0
   21.2653   19.0968   23.6911 H   0  0  0  0  0  0  0  0  0  0  0  0
   19.5355   17.7834   23.9109 C   0  0  0  0  0  0  0  0  0  0  0  0
   19.8009   16.8117   23.4741 H   0  0  0  0  0  0  0  0  0  0  0  0
   18.8727   17.5560   24.7562 H   0  0  0  0  0  0  0  0  0  0  0  0
   18.7596   18.6145   22.8537 C   0  0  0  0  0  0  0  0  0  0  0  0
   18.7258   19.6741   23.1315 H   0  0  0  0  0  0  0  0  0  0  0  0
   17.7137   18.2782   22.8668 H   0  0  0  0  0  0  0  0  0  0  0  0
   19.2769   18.4547   21.3981 C   0  0  0  0  0  0  0  0  0  0  0  0
   19.2313   17.3931   21.1187 H   0  0  0  0  0  0  0  0  0  0  0  0
   18.5796   18.9684   20.7219 H   0  0  0  0  0  0  0  0  0  0  0  0
   20.7071   18.9817   21.1220 C   0  0  0  0  0  0  0  0  0  0  0  0
   20.9590   18.7681   20.0738 H   0  0  0  0  0  0  0  0  0  0  0  0
   21.4409   18.4267   21.7204 H   0  0  0  0  0  0  0  0  0  0  0  0
   20.8582   20.5014   21.3626 C   0  0  0  0  0  0  0  0  0  0  0  0
   20.1427   21.0684   20.7532 H   0  0  0  0  0  0  0  0  0  0  0  0
   21.8678   20.8353   21.0906 H   0  0  0  0  0  0  0  0  0  0  0  0
   20.6942   20.7660   22.4137 H   0  0  0  0  0  0  0  0  0  0  0  0
   19.8076   20.5256   25.4938 C   0  0  0  0  0  0  0  0  0  0  0  0
   18.7985   20.2336   25.1968 H   0  0  0  0  0  0  0  0  0  0  0  0
   19.7637   21.1005   26.4214 H   0  0  0  0  0  0  0  0  0  0  0  0
   20.2693   21.1275   24.7084 H   0  0  0  0  0  0  0  0  0  0  0  0
  1  2  1  0  0  0  0
  1  3  1  0  0  0  0
  1  4  1  0  0  0  0
  4  5  1  0  0  0  0
  4  6  1  0  0  0  0
  4  7  1  0  0  0  0
  7  8  1  0  0  0  0
  7  9  1  0  0  0  0
  7 10  1  0  0  0  0
 10 11  1  0  0  0  0
 10 12  1  0  0  0  0
 10 13  1  0  0  0  0
 13 14  1  0  0  0  0
 13 15  1  0  0  0  0
 13 16  1  0  0  0  0
 16 17  1  0  0  0  0
 16 18  1  0  0  0  0
 16 19  1  0  0  0  0
 19 20  1  0  0  0  0
 19 21  1  0  0  0  0
 19 22  1  0  0  0  0
  1 23  1  0  0  0  0
 23 24  1  0  0  0  0
 23 25  1  0  0  0  0
 23 26  1  0  0  0  0
M  END
> <VM2 Rank>
201

> <Conf_Id>
830

> <Probability>
0.00

> <Sum Probability>
100.00

> <Delta G>
5.768

> <G>
81.234

> <E>
47.627

> <-TS>
33.608

> <U+W>
26.165

> <U>
76.612

> <W>
-50.447

> <W(PB)>
-52.593

> <W(SA)>
2.146

> <Valence>
6.664

> <Coulomb>
69.963

> <VdW>
-0.016

> <VdW6>
-9.993

> <VdW12>
9.977

> <Bond>
0.317

> <Angle>
2.088

> <Pdih>
4.259

> <Idih>
0.000

> <Tether>
0.000

$$$$
VeraChem MOL file


 26 25  0  0  0  0  0  0  0  0999 V2000     
   19.7661   18.2103   25.3470 N   0  3  0  0  0  0  0  0  0  0  0  0
   19.8456   17.5570   26.1423 H   0  0  0  0  0  0  0  0  0  0  0  0
   19.7479   17.6120   24.5079 H   0  0  0  0  0  0  0  0  0  0  0  0
   20.9816   19.1200   25.3172 C   0  0  0  0  0  0  0  0  0  0  0  0
   21.7788   18.5940   25.8489 H   0  0  0  0  0  0  0  0  0  0  0  0
   20.7450   20.0217   25.8874 H   0  0  0  0  0  0  0  0  0  0  0  0
   21.5151   19.4989   23.9157 C   0  0  0  0  0  0  0  0  0  0  0  0
   22.4275   20.0896   24.0719 H   0  0  0  0  0  0  0  0  0  0  0  0
   21.8395   18.5959   23.3859 H   0  0  0  0  0  0  0  0  0  0  0  0
   20.5448   20.3426   23.0456 C   0  0  0  0  0  0  0  0  0  0  0  0
   21.1367   20.9998   22.3936 H   0  0  0  0  0  0  0  0  0  0  0  0
   19.9701   21.0171   23.6949 H   0  0  0  0  0  0  0  0  0  0  0  0
   19.5746   19.5233   22.1536 C   0  0  0  0  0  0  0  0  0  0  0  0
   19.0188   18.7936   22.7529 H   0  0  0  0  0  0  0  0  0  0  0  0
   18.8240   20.2111   21.7403 H   0  0  0  0  0  0  0  0  0  0  0  0
   20.2783   18.7994   20.9806 C   0  0  0  0  0  0  0  0  0  0  0  0
   21.0030   18.0677   21.3600 H   0  0  0  0  0  0  0  0  0  0  0  0
   20.8460   19.5264   20.3832 H   0  0  0  0  0  0  0  0  0  0  0  0
   19.2645   18.0734   20.0706 C   0  0  0  0  0  0  0  0  0  0  0  0
   18.5461   18.7806   19.6359 H   0  0  0  0  0  0  0  0  0  0  0  0
   18.7017   17.3160   20.6317 H   0  0  0  0  0  0  0  0  0  0  0  0
   19.7792   17.5664   19.2441 H   0  0  0  0  0  0  0  0  0  0  0  0
   18.4831   19.0222   25.4866 C   0  0  0  0  0  0  0  0  0  0  0  0
   18.3913   19.7070   24.6419 H   0  0  0  0  0  0  0  0  0  0  0  0
   17.6291   18.3415   25.5046 H   0  0  0  0  0  0  0  0  0  0  0  0
   18.5199   19.5907   26.4184 H   0  0  0  0  0  0  0  0  0  0  0  0
  1  2  1  0  0  0  0
  1  3  1  0  0  0  0
  1  4  1  0  0  0  0
  4  5  1  0  0  0  0
  4  6  1  0  0  0  0
  4  7  1  0  0  0  0
  7  8  1  0  0  0  0
  7  9  1  0  0  0  0
  7 10  1  0  0  0  0
 10 11  1  0  0  0  0
 10 12  1  0  0  0  0
 10 13  1  0  0  0  0
 13 14  1  0  0  0  0
 13 15  1  0  0  0  0
 13 16  1  0  0  0  0
 16 17  1  0  0  0  0
 16 18  1  0  0  0  0
 16 19  1  0  0  0  0
 19 20  1  0  0  0  0
 19 21  1  0  0  0  0
 19 22  1  0  0  0  0
  1 23  1  0  0  0  0
 23 24  1  0  0  0  0
 23 25  1  0  0  0  0
 23 26  1  0  0  0  0
M  END
> <VM2 Rank>
202

> <Conf_Id>
1359

> <Probability>
0.00

> <Sum Probability>
100.00

> <Delta G>
5.773

> <G>
81.239

> <E>
48.416

> <-TS>
32.824

> <U+W>
26.954

> <U>
77.039

> <W>
-50.085

> <W(PB)>
-52.291

> <W(SA)>
2.206

> <Valence>
6.724

> <Coulomb>
70.181

> <VdW>
0.134

> <VdW6>
-8.757

> <VdW12>
8.891

> <Bond>
0.279

> <Angle>
1.699

> <Pdih>
4.745

> <Idih>
0.000

> <Tether>
0.000

$$$$
VeraChem MOL file


 26 25  0  0  0  0  0  0  0  0999 V2000     
   20.7147   19.2438   24.9918 N   0  3  0  0  0  0  0  0  0  0  0  0
   21.2362   19.2777   24.1036 H   0  0  0  0  0  0  0  0  0  0  0  0
   21.1222   18.4619   25.5280 H   0  0  0  0  0  0  0  0  0  0  0  0
   19.2493   18.9761   24.7119 C   0  0  0  0  0  0  0  0  0  0  0  0
   18.8451   19.8281   24.1619 H   0  0  0  0  0  0  0  0  0  0  0  0
   18.7326   18.9228   25.6735 H   0  0  0  0  0  0  0  0  0  0  0  0
   18.9930   17.6780   23.9221 C   0  0  0  0  0  0  0  0  0  0  0  0
   19.2918   16.8251   24.5458 H   0  0  0  0  0  0  0  0  0  0  0  0
   17.9114   17.5717   23.7659 H   0  0  0  0  0  0  0  0  0  0  0  0
   19.7199   17.5757   22.5538 C   0  0  0  0  0  0  0  0  0  0  0  0
   19.4820   16.5867   22.1383 H   0  0  0  0  0  0  0  0  0  0  0  0
   20.8072   17.5682   22.6932 H   0  0  0  0  0  0  0  0  0  0  0  0
   19.2974   18.6369   21.5000 C   0  0  0  0  0  0  0  0  0  0  0  0
   19.4763   18.2179   20.5001 H   0  0  0  0  0  0  0  0  0  0  0  0
   18.2119   18.7956   21.5602 H   0  0  0  0  0  0  0  0  0  0  0  0
   20.0224   20.0069   21.5747 C   0  0  0  0  0  0  0  0  0  0  0  0
   19.8390   20.5008   22.5350 H   0  0  0  0  0  0  0  0  0  0  0  0
   19.5799   20.6688   20.8172 H   0  0  0  0  0  0  0  0  0  0  0  0
   21.5435   19.9191   21.3106 C   0  0  0  0  0  0  0  0  0  0  0  0
   21.9848   20.9238   21.2776 H   0  0  0  0  0  0  0  0  0  0  0  0
   21.7474   19.4346   20.3468 H   0  0  0  0  0  0  0  0  0  0  0  0
   22.0670   19.3565   22.0918 H   0  0  0  0  0  0  0  0  0  0  0  0
   20.8678   20.5535   25.7520 C   0  0  0  0  0  0  0  0  0  0  0  0
   20.3283   20.4837   26.6991 H   0  0  0  0  0  0  0  0  0  0  0  0
   21.9277   20.7347   25.9440 H   0  0  0  0  0  0  0  0  0  0  0  0
   20.4570   21.3679   25.1513 H   0  0  0  0  0  0  0  0  0  0  0  0
  1  2  1  0  0  0  0
  1  3  1  0  0  0  0
  1  4  1  0  0  0  0
  4  5  1  0  0  0  0
  4  6  1  0  0  0  0
  4  7  1  0  0  0  0
  7  8  1  0  0  0  0
  7  9  1  0  0  0  0
  7 10  1  0  0  0  0
 10 11  1  0  0  0  0
 10 12  1  0  0  0  0
 10 13  1  0  0  0  0
 13 14  1  0  0  0  0
 13 15  1  0  0  0  0
 13 16  1  0  0  0  0
 16 17  1  0  0  0  0
 16 18  1  0  0  0  0
 16 19  1  0  0  0  0
 19 20  1  0  0  0  0
 19 21  1  0  0  0  0
 19 22  1  0  0  0  0
  1 23  1  0  0  0  0
 23 24  1  0  0  0  0
 23 25  1  0  0  0  0
 23 26  1  0  0  0  0
M  END
> <VM2 Rank>
203

> <Conf_Id>
187

> <Probability>
0.00

> <Sum Probability>
100.00

> <Delta G>
5.802

> <G>
81.268

> <E>
48.125

> <-TS>
33.142

> <U+W>
26.663

> <U>
75.617

> <W>
-48.954

> <W(PB)>
-51.136

> <W(SA)>
2.182

> <Valence>
5.117

> <Coulomb>
70.837

> <VdW>
-0.337

> <VdW6>
-9.231

> <VdW12>
8.894

> <Bond>
0.293

> <Angle>
2.155

> <Pdih>
2.670

> <Idih>
0.000

> <Tether>
0.000

$$$$
VeraChem MOL file


 26 25  0  0  0  0  0  0  0  0999 V2000     
   20.3584   18.2703   25.3681 N   0  3  0  0  0  0  0  0  0  0  0  0
   20.5548   17.6937   24.5366 H   0  0  0  0  0  0  0  0  0  0  0  0
   20.3558   17.6088   26.1605 H   0  0  0  0  0  0  0  0  0  0  0  0
   18.9903   18.9181   25.2467 C   0  0  0  0  0  0  0  0  0  0  0  0
   19.0008   19.8450   25.8255 H   0  0  0  0  0  0  0  0  0  0  0  0
   18.2795   18.2393   25.7250 H   0  0  0  0  0  0  0  0  0  0  0  0
   18.4912   19.1923   23.8086 C   0  0  0  0  0  0  0  0  0  0  0  0
   18.3924   18.2463   23.2638 H   0  0  0  0  0  0  0  0  0  0  0  0
   17.4702   19.5869   23.8962 H   0  0  0  0  0  0  0  0  0  0  0  0
   19.3312   20.2195   23.0026 C   0  0  0  0  0  0  0  0  0  0  0  0
   19.7121   20.9909   23.6858 H   0  0  0  0  0  0  0  0  0  0  0  0
   18.6668   20.7494   22.3062 H   0  0  0  0  0  0  0  0  0  0  0  0
   20.5060   19.6177   22.1866 C   0  0  0  0  0  0  0  0  0  0  0  0
   21.1306   20.4450   21.8220 H   0  0  0  0  0  0  0  0  0  0  0  0
   21.1534   19.0100   22.8286 H   0  0  0  0  0  0  0  0  0  0  0  0
   20.0457   18.7758   20.9723 C   0  0  0  0  0  0  0  0  0  0  0  0
   19.3870   19.3785   20.3315 H   0  0  0  0  0  0  0  0  0  0  0  0
   19.4575   17.9110   21.3052 H   0  0  0  0  0  0  0  0  0  0  0  0
   21.2457   18.2742   20.1408 C   0  0  0  0  0  0  0  0  0  0  0  0
   20.9022   17.6803   19.2839 H   0  0  0  0  0  0  0  0  0  0  0  0
   21.9081   17.6411   20.7453 H   0  0  0  0  0  0  0  0  0  0  0  0
   21.8364   19.1142   19.7525 H   0  0  0  0  0  0  0  0  0  0  0  0
   21.4396   19.3220   25.5913 C   0  0  0  0  0  0  0  0  0  0  0  0
   21.2244   19.8650   26.5141 H   0  0  0  0  0  0  0  0  0  0  0  0
   22.4093   18.8260   25.6739 H   0  0  0  0  0  0  0  0  0  0  0  0
   21.4512   20.0171   24.7502 H   0  0  0  0  0  0  0  0  0  0  0  0
  1  2  1  0  0  0  0
  1  3  1  0  0  0  0
  1  4  1  0  0  0  0
  4  5  1  0  0  0  0
  4  6  1  0  0  0  0
  4  7  1  0  0  0  0
  7  8  1  0  0  0  0
  7  9  1  0  0  0  0
  7 10  1  0  0  0  0
 10 11  1  0  0  0  0
 10 12  1  0  0  0  0
 10 13  1  0  0  0  0
 13 14  1  0  0  0  0
 13 15  1  0  0  0  0
 13 16  1  0  0  0  0
 16 17  1  0  0  0  0
 16 18  1  0  0  0  0
 16 19  1  0  0  0  0
 19 20  1  0  0  0  0
 19 21  1  0  0  0  0
 19 22  1  0  0  0  0
  1 23  1  0  0  0  0
 23 24  1  0  0  0  0
 23 25  1  0  0  0  0
 23 26  1  0  0  0  0
M  END
> <VM2 Rank>
204

> <Conf_Id>
1344

> <Probability>
0.00

> <Sum Probability>
100.00

> <Delta G>
5.810

> <G>
81.276

> <E>
48.451

> <-TS>
32.824

> <U+W>
26.990

> <U>
77.039

> <W>
-50.050

> <W(PB)>
-52.249

> <W(SA)>
2.200

> <Valence>
6.724

> <Coulomb>
70.181

> <VdW>
0.134

> <VdW6>
-8.757

> <VdW12>
8.891

> <Bond>
0.279

> <Angle>
1.699

> <Pdih>
4.746

> <Idih>
0.000

> <Tether>
0.000

$$$$
VeraChem MOL file


 26 25  0  0  0  0  0  0  0  0999 V2000     
   19.2491   19.0919   24.9400 N   0  3  0  0  0  0  0  0  0  0  0  0
   18.9741   18.2392   25.4520 H   0  0  0  0  0  0  0  0  0  0  0  0
   18.7952   19.0246   24.0172 H   0  0  0  0  0  0  0  0  0  0  0  0
   20.7542   19.1321   24.7652 C   0  0  0  0  0  0  0  0  0  0  0  0
   21.2024   19.1788   25.7609 H   0  0  0  0  0  0  0  0  0  0  0  0
   21.0127   20.0528   24.2386 H   0  0  0  0  0  0  0  0  0  0  0  0
   21.3256   17.9198   24.0046 C   0  0  0  0  0  0  0  0  0  0  0  0
   22.4143   18.0385   23.9253 H   0  0  0  0  0  0  0  0  0  0  0  0
   21.1650   17.0193   24.6121 H   0  0  0  0  0  0  0  0  0  0  0  0
   20.7326   17.6807   22.5897 C   0  0  0  0  0  0  0  0  0  0  0  0
   19.6629   17.4495   22.6527 H   0  0  0  0  0  0  0  0  0  0  0  0
   21.1966   16.7644   22.1990 H   0  0  0  0  0  0  0  0  0  0  0  0
   21.0014   18.8136   21.5604 C   0  0  0  0  0  0  0  0  0  0  0  0
   22.0244   19.1909   21.6952 H   0  0  0  0  0  0  0  0  0  0  0  0
   20.9826   18.3740   20.5535 H   0  0  0  0  0  0  0  0  0  0  0  0
   20.0077   20.0053   21.5742 C   0  0  0  0  0  0  0  0  0  0  0  0
   20.3571   20.7494   20.8448 H   0  0  0  0  0  0  0  0  0  0  0  0
   20.0183   20.5193   22.5414 H   0  0  0  0  0  0  0  0  0  0  0  0
   18.5591   19.6097   21.2048 C   0  0  0  0  0  0  0  0  0  0  0  0
   18.5268   19.1010   20.2325 H   0  0  0  0  0  0  0  0  0  0  0  0
   17.9248   20.5029   21.1339 H   0  0  0  0  0  0  0  0  0  0  0  0
   18.1087   18.9460   21.9513 H   0  0  0  0  0  0  0  0  0  0  0  0
   18.7782   20.3369   25.6781 C   0  0  0  0  0  0  0  0  0  0  0  0
   19.0544   21.2225   25.1016 H   0  0  0  0  0  0  0  0  0  0  0  0
   17.6929   20.2957   25.7941 H   0  0  0  0  0  0  0  0  0  0  0  0
   19.2530   20.3722   26.6610 H   0  0  0  0  0  0  0  0  0  0  0  0
  1  2  1  0  0  0  0
  1  3  1  0  0  0  0
  1  4  1  0  0  0  0
  4  5  1  0  0  0  0
  4  6  1  0  0  0  0
  4  7  1  0  0  0  0
  7  8  1  0  0  0  0
  7  9  1  0  0  0  0
  7 10  1  0  0  0  0
 10 11  1  0  0  0  0
 10 12  1  0  0  0  0
 10 13  1  0  0  0  0
 13 14  1  0  0  0  0
 13 15  1  0  0  0  0
 13 16  1  0  0  0  0
 16 17  1  0  0  0  0
 16 18  1  0  0  0  0
 16 19  1  0  0  0  0
 19 20  1  0  0  0  0
 19 21  1  0  0  0  0
 19 22  1  0  0  0  0
  1 23  1  0  0  0  0
 23 24  1  0  0  0  0
 23 25  1  0  0  0  0
 23 26  1  0  0  0  0
M  END
> <VM2 Rank>
205

> <Conf_Id>
551

> <Probability>
0.00

> <Sum Probability>
100.00

> <Delta G>
5.838

> <G>
81.304

> <E>
48.162

> <-TS>
33.142

> <U+W>
26.700

> <U>
75.617

> <W>
-48.917

> <W(PB)>
-51.101

> <W(SA)>
2.184

> <Valence>
5.117

> <Coulomb>
70.837

> <VdW>
-0.337

> <VdW6>
-9.231

> <VdW12>
8.894

> <Bond>
0.293

> <Angle>
2.154

> <Pdih>
2.670

> <Idih>
0.000

> <Tether>
0.000

$$$$
VeraChem MOL file


 26 25  0  0  0  0  0  0  0  0999 V2000     
   20.4643   18.7705   25.6853 N   0  3  0  0  0  0  0  0  0  0  0  0
   21.1468   18.0356   25.4437 H   0  0  0  0  0  0  0  0  0  0  0  0
   19.7753   18.3133   26.3025 H   0  0  0  0  0  0  0  0  0  0  0  0
   19.7836   19.2861   24.4336 C   0  0  0  0  0  0  0  0  0  0  0  0
   20.5435   19.7714   23.8189 H   0  0  0  0  0  0  0  0  0  0  0  0
   19.0555   20.0429   24.7362 H   0  0  0  0  0  0  0  0  0  0  0  0
   19.0747   18.1808   23.6264 C   0  0  0  0  0  0  0  0  0  0  0  0
   19.7787   17.3794   23.3669 H   0  0  0  0  0  0  0  0  0  0  0  0
   18.3120   17.7248   24.2717 H   0  0  0  0  0  0  0  0  0  0  0  0
   18.3830   18.7155   22.3480 C   0  0  0  0  0  0  0  0  0  0  0  0
   17.9252   19.6936   22.5513 H   0  0  0  0  0  0  0  0  0  0  0  0
   17.5468   18.0433   22.1106 H   0  0  0  0  0  0  0  0  0  0  0  0
   19.2810   18.8019   21.0839 C   0  0  0  0  0  0  0  0  0  0  0  0
   19.6447   17.8013   20.8123 H   0  0  0  0  0  0  0  0  0  0  0  0
   18.6389   19.1147   20.2489 H   0  0  0  0  0  0  0  0  0  0  0  0
   20.4673   19.7959   21.1688 C   0  0  0  0  0  0  0  0  0  0  0  0
   20.2305   20.6193   21.8560 H   0  0  0  0  0  0  0  0  0  0  0  0
   20.6038   20.2622   20.1829 H   0  0  0  0  0  0  0  0  0  0  0  0
   21.8025   19.1201   21.5607 C   0  0  0  0  0  0  0  0  0  0  0  0
   22.1007   18.3806   20.8063 H   0  0  0  0  0  0  0  0  0  0  0  0
   21.7391   18.6047   22.5250 H   0  0  0  0  0  0  0  0  0  0  0  0
   22.6054   19.8653   21.6309 H   0  0  0  0  0  0  0  0  0  0  0  0
   21.1516   19.9192   26.4103 C   0  0  0  0  0  0  0  0  0  0  0  0
   20.4055   20.6680   26.6852 H   0  0  0  0  0  0  0  0  0  0  0  0
   21.6376   19.5352   27.3099 H   0  0  0  0  0  0  0  0  0  0  0  0
   21.8981   20.3655   25.7496 H   0  0  0  0  0  0  0  0  0  0  0  0
  1  2  1  0  0  0  0
  1  3  1  0  0  0  0
  1  4  1  0  0  0  0
  4  5  1  0  0  0  0
  4  6  1  0  0  0  0
  4  7  1  0  0  0  0
  7  8  1  0  0  0  0
  7  9  1  0  0  0  0
  7 10  1  0  0  0  0
 10 11  1  0  0  0  0
 10 12  1  0  0  0  0
 10 13  1  0  0  0  0
 13 14  1  0  0  0  0
 13 15  1  0  0  0  0
 13 16  1  0  0  0  0
 16 17  1  0  0  0  0
 16 18  1  0  0  0  0
 16 19  1  0  0  0  0
 19 20  1  0  0  0  0
 19 21  1  0  0  0  0
 19 22  1  0  0  0  0
  1 23  1  0  0  0  0
 23 24  1  0  0  0  0
 23 25  1  0  0  0  0
 23 26  1  0  0  0  0
M  END
> <VM2 Rank>
206

> <Conf_Id>
1760

> <Probability>
0.00

> <Sum Probability>
100.00

> <Delta G>
5.957

> <G>
81.423

> <E>
48.384

> <-TS>
33.039

> <U+W>
26.922

> <U>
76.568

> <W>
-49.645

> <W(PB)>
-51.858

> <W(SA)>
2.213

> <Valence>
6.604

> <Coulomb>
70.083

> <VdW>
-0.119

> <VdW6>
-8.383

> <VdW12>
8.264

> <Bond>
0.244

> <Angle>
1.737

> <Pdih>
4.623

> <Idih>
0.000

> <Tether>
0.000

$$$$
VeraChem MOL file


 26 25  0  0  0  0  0  0  0  0999 V2000     
   19.8689   19.5983   25.6341 N   0  3  0  0  0  0  0  0  0  0  0  0
   20.4744   19.0860   26.2934 H   0  0  0  0  0  0  0  0  0  0  0  0
   19.2007   20.1067   26.2344 H   0  0  0  0  0  0  0  0  0  0  0  0
   19.0993   18.6190   24.7578 C   0  0  0  0  0  0  0  0  0  0  0  0
   18.5563   19.1758   23.9938 H   0  0  0  0  0  0  0  0  0  0  0  0
   18.3538   18.1600   25.4123 H   0  0  0  0  0  0  0  0  0  0  0  0
   19.9252   17.4752   24.1255 C   0  0  0  0  0  0  0  0  0  0  0  0
   20.6237   17.0826   24.8761 H   0  0  0  0  0  0  0  0  0  0  0  0
   19.2372   16.6486   23.9039 H   0  0  0  0  0  0  0  0  0  0  0  0
   20.7034   17.8138   22.8255 C   0  0  0  0  0  0  0  0  0  0  0  0
   21.2572   16.9083   22.5418 H   0  0  0  0  0  0  0  0  0  0  0  0
   21.4760   18.5653   23.0132 H   0  0  0  0  0  0  0  0  0  0  0  0
   19.8102   18.2097   21.6170 C   0  0  0  0  0  0  0  0  0  0  0  0
   20.2922   17.8530   20.6962 H   0  0  0  0  0  0  0  0  0  0  0  0
   18.8562   17.6680   21.6748 H   0  0  0  0  0  0  0  0  0  0  0  0
   19.5325   19.7262   21.4520 C   0  0  0  0  0  0  0  0  0  0  0  0
   19.0742   20.1422   22.3555 H   0  0  0  0  0  0  0  0  0  0  0  0
   18.7885   19.8561   20.6536 H   0  0  0  0  0  0  0  0  0  0  0  0
   20.7910   20.5444   21.0807 C   0  0  0  0  0  0  0  0  0  0  0  0
   21.5386   20.5321   21.8822 H   0  0  0  0  0  0  0  0  0  0  0  0
   20.5253   21.5931   20.8946 H   0  0  0  0  0  0  0  0  0  0  0  0
   21.2609   20.1525   20.1694 H   0  0  0  0  0  0  0  0  0  0  0  0
   20.6775   20.6034   24.8244 C   0  0  0  0  0  0  0  0  0  0  0  0
   20.0175   21.1147   24.1209 H   0  0  0  0  0  0  0  0  0  0  0  0
   21.1221   21.3318   25.5061 H   0  0  0  0  0  0  0  0  0  0  0  0
   21.4695   20.0839   24.2852 H   0  0  0  0  0  0  0  0  0  0  0  0
  1  2  1  0  0  0  0
  1  3  1  0  0  0  0
  1  4  1  0  0  0  0
  4  5  1  0  0  0  0
  4  6  1  0  0  0  0
  4  7  1  0  0  0  0
  7  8  1  0  0  0  0
  7  9  1  0  0  0  0
  7 10  1  0  0  0  0
 10 11  1  0  0  0  0
 10 12  1  0  0  0  0
 10 13  1  0  0  0  0
 13 14  1  0  0  0  0
 13 15  1  0  0  0  0
 13 16  1  0  0  0  0
 16 17  1  0  0  0  0
 16 18  1  0  0  0  0
 16 19  1  0  0  0  0
 19 20  1  0  0  0  0
 19 21  1  0  0  0  0
 19 22  1  0  0  0  0
  1 23  1  0  0  0  0
 23 24  1  0  0  0  0
 23 25  1  0  0  0  0
 23 26  1  0  0  0  0
M  END
> <VM2 Rank>
207

> <Conf_Id>
277

> <Probability>
0.00

> <Sum Probability>
100.00

> <Delta G>
6.164

> <G>
81.630

> <E>
48.454

> <-TS>
33.176

> <U+W>
26.992

> <U>
77.501

> <W>
-50.509

> <W(PB)>
-52.627

> <W(SA)>
2.118

> <Valence>
7.521

> <Coulomb>
70.206

> <VdW>
-0.225

> <VdW6>
-9.966

> <VdW12>
9.741

> <Bond>
0.343

> <Angle>
2.885

> <Pdih>
4.292

> <Idih>
0.000

> <Tether>
0.000

$$$$
VeraChem MOL file


 26 25  0  0  0  0  0  0  0  0999 V2000     
   19.6017   20.0840   24.7700 N   0  3  0  0  0  0  0  0  0  0  0  0
   18.8084   20.7275   24.9203 H   0  0  0  0  0  0  0  0  0  0  0  0
   20.0566   20.4067   23.9036 H   0  0  0  0  0  0  0  0  0  0  0  0
   19.0821   18.6685   24.5771 C   0  0  0  0  0  0  0  0  0  0  0  0
   18.3006   18.7028   23.8154 H   0  0  0  0  0  0  0  0  0  0  0  0
   18.6154   18.3566   25.5148 H   0  0  0  0  0  0  0  0  0  0  0  0
   20.1462   17.6290   24.1631 C   0  0  0  0  0  0  0  0  0  0  0  0
   20.8330   17.4737   25.0052 H   0  0  0  0  0  0  0  0  0  0  0  0
   19.6480   16.6635   24.0053 H   0  0  0  0  0  0  0  0  0  0  0  0
   20.9772   17.9884   22.9019 C   0  0  0  0  0  0  0  0  0  0  0  0
   21.7345   17.2012   22.7829 H   0  0  0  0  0  0  0  0  0  0  0  0
   21.5505   18.9082   23.0671 H   0  0  0  0  0  0  0  0  0  0  0  0
   20.1700   18.0597   21.5760 C   0  0  0  0  0  0  0  0  0  0  0  0
   20.8586   17.8584   20.7437 H   0  0  0  0  0  0  0  0  0  0  0  0
   19.4373   17.2413   21.5534 H   0  0  0  0  0  0  0  0  0  0  0  0
   19.4503   19.4017   21.2802 C   0  0  0  0  0  0  0  0  0  0  0  0
   18.7099   19.6319   22.0537 H   0  0  0  0  0  0  0  0  0  0  0  0
   18.8744   19.2828   20.3518 H   0  0  0  0  0  0  0  0  0  0  0  0
   20.4159   20.5963   21.1000 C   0  0  0  0  0  0  0  0  0  0  0  0
   21.1546   20.3882   20.3150 H   0  0  0  0  0  0  0  0  0  0  0  0
   20.9584   20.8333   22.0221 H   0  0  0  0  0  0  0  0  0  0  0  0
   19.8610   21.4960   20.8037 H   0  0  0  0  0  0  0  0  0  0  0  0
   20.5646   20.1624   25.9487 C   0  0  0  0  0  0  0  0  0  0  0  0
   21.4266   19.5212   25.7536 H   0  0  0  0  0  0  0  0  0  0  0  0
   20.8954   21.1960   26.0724 H   0  0  0  0  0  0  0  0  0  0  0  0
   20.0515   19.8286   26.8532 H   0  0  0  0  0  0  0  0  0  0  0  0
  1  2  1  0  0  0  0
  1  3  1  0  0  0  0
  1  4  1  0  0  0  0
  4  5  1  0  0  0  0
  4  6  1  0  0  0  0
  4  7  1  0  0  0  0
  7  8  1  0  0  0  0
  7  9  1  0  0  0  0
  7 10  1  0  0  0  0
 10 11  1  0  0  0  0
 10 12  1  0  0  0  0
 10 13  1  0  0  0  0
 13 14  1  0  0  0  0
 13 15  1  0  0  0  0
 13 16  1  0  0  0  0
 16 17  1  0  0  0  0
 16 18  1  0  0  0  0
 16 19  1  0  0  0  0
 19 20  1  0  0  0  0
 19 21  1  0  0  0  0
 19 22  1  0  0  0  0
  1 23  1  0  0  0  0
 23 24  1  0  0  0  0
 23 25  1  0  0  0  0
 23 26  1  0  0  0  0
M  END
> <VM2 Rank>
208

> <Conf_Id>
818

> <Probability>
0.00

> <Sum Probability>
100.00

> <Delta G>
6.260

> <G>
81.726

> <E>
48.323

> <-TS>
33.403

> <U+W>
26.861

> <U>
76.224

> <W>
-49.363

> <W(PB)>
-51.507

> <W(SA)>
2.144

> <Valence>
5.366

> <Coulomb>
70.918

> <VdW>
-0.060

> <VdW6>
-9.939

> <VdW12>
9.879

> <Bond>
0.328

> <Angle>
2.304

> <Pdih>
2.734

> <Idih>
0.000

> <Tether>
0.000

$$$$
VeraChem MOL file


 26 25  0  0  0  0  0  0  0  0999 V2000     
   20.1493   20.1488   24.7892 N   0  3  0  0  0  0  0  0  0  0  0  0
   19.6924   20.3637   23.8909 H   0  0  0  0  0  0  0  0  0  0  0  0
   20.7584   20.9583   24.9886 H   0  0  0  0  0  0  0  0  0  0  0  0
   20.9966   18.8951   24.6440 C   0  0  0  0  0  0  0  0  0  0  0  0
   21.4574   18.6929   25.6142 H   0  0  0  0  0  0  0  0  0  0  0  0
   21.7991   19.1169   23.9377 H   0  0  0  0  0  0  0  0  0  0  0  0
   20.2353   17.6396   24.1662 C   0  0  0  0  0  0  0  0  0  0  0  0
   20.9546   16.8181   24.0510 H   0  0  0  0  0  0  0  0  0  0  0  0
   19.5473   17.3215   24.9602 H   0  0  0  0  0  0  0  0  0  0  0  0
   19.4323   17.8056   22.8479 C   0  0  0  0  0  0  0  0  0  0  0  0
   18.6504   18.5650   22.9656 H   0  0  0  0  0  0  0  0  0  0  0  0
   18.8895   16.8645   22.6834 H   0  0  0  0  0  0  0  0  0  0  0  0
   20.2900   18.0739   21.5802 C   0  0  0  0  0  0  0  0  0  0  0  0
   21.1931   17.4491   21.6148 H   0  0  0  0  0  0  0  0  0  0  0  0
   19.7264   17.7244   20.7040 H   0  0  0  0  0  0  0  0  0  0  0  0
   20.6956   19.5491   21.3238 C   0  0  0  0  0  0  0  0  0  0  0  0
   21.3460   19.5753   20.4382 H   0  0  0  0  0  0  0  0  0  0  0  0
   21.3070   19.9392   22.1445 H   0  0  0  0  0  0  0  0  0  0  0  0
   19.4930   20.4871   21.0678 C   0  0  0  0  0  0  0  0  0  0  0  0
   18.8790   20.1189   20.2355 H   0  0  0  0  0  0  0  0  0  0  0  0
   19.8419   21.4937   20.8030 H   0  0  0  0  0  0  0  0  0  0  0  0
   18.8481   20.5836   21.9483 H   0  0  0  0  0  0  0  0  0  0  0  0
   19.1158   19.9909   25.8981 C   0  0  0  0  0  0  0  0  0  0  0  0
   19.6290   19.7786   26.8385 H   0  0  0  0  0  0  0  0  0  0  0  0
   18.5454   20.9178   25.9903 H   0  0  0  0  0  0  0  0  0  0  0  0
   18.4426   19.1680   25.6493 H   0  0  0  0  0  0  0  0  0  0  0  0
  1  2  1  0  0  0  0
  1  3  1  0  0  0  0
  1  4  1  0  0  0  0
  4  5  1  0  0  0  0
  4  6  1  0  0  0  0
  4  7  1  0  0  0  0
  7  8  1  0  0  0  0
  7  9  1  0  0  0  0
  7 10  1  0  0  0  0
 10 11  1  0  0  0  0
 10 12  1  0  0  0  0
 10 13  1  0  0  0  0
 13 14  1  0  0  0  0
 13 15  1  0  0  0  0
 13 16  1  0  0  0  0
 16 17  1  0  0  0  0
 16 18  1  0  0  0  0
 16 19  1  0  0  0  0
 19 20  1  0  0  0  0
 19 21  1  0  0  0  0
 19 22  1  0  0  0  0
  1 23  1  0  0  0  0
 23 24  1  0  0  0  0
 23 25  1  0  0  0  0
 23 26  1  0  0  0  0
M  END
> <VM2 Rank>
209

> <Conf_Id>
243

> <Probability>
0.00

> <Sum Probability>
100.00

> <Delta G>
6.323

> <G>
81.789

> <E>
48.387

> <-TS>
33.403

> <U+W>
26.925

> <U>
76.224

> <W>
-49.299

> <W(PB)>
-51.459

> <W(SA)>
2.160

> <Valence>
5.366

> <Coulomb>
70.918

> <VdW>
-0.060

> <VdW6>
-9.938

> <VdW12>
9.878

> <Bond>
0.328

> <Angle>
2.304

> <Pdih>
2.734

> <Idih>
0.000

> <Tether>
0.000

$$$$
VeraChem MOL file


 26 25  0  0  0  0  0  0  0  0999 V2000     
   20.9447   18.5882   25.4988 N   0  3  0  0  0  0  0  0  0  0  0  0
   21.9374   18.7896   25.6984 H   0  0  0  0  0  0  0  0  0  0  0  0
   20.9220   17.5909   25.2362 H   0  0  0  0  0  0  0  0  0  0  0  0
   20.4743   19.4494   24.3385 C   0  0  0  0  0  0  0  0  0  0  0  0
   21.2177   19.3541   23.5453 H   0  0  0  0  0  0  0  0  0  0  0  0
   20.4710   20.4900   24.6724 H   0  0  0  0  0  0  0  0  0  0  0  0
   19.0822   19.0741   23.7850 C   0  0  0  0  0  0  0  0  0  0  0  0
   19.0414   18.0061   23.5349 H   0  0  0  0  0  0  0  0  0  0  0  0
   18.3402   19.2334   24.5780 H   0  0  0  0  0  0  0  0  0  0  0  0
   18.6720   19.9245   22.5573 C   0  0  0  0  0  0  0  0  0  0  0  0
   19.0079   20.9621   22.6913 H   0  0  0  0  0  0  0  0  0  0  0  0
   17.5744   19.9720   22.5319 H   0  0  0  0  0  0  0  0  0  0  0  0
   19.1434   19.3870   21.1785 C   0  0  0  0  0  0  0  0  0  0  0  0
   18.7140   18.3922   20.9961 H   0  0  0  0  0  0  0  0  0  0  0  0
   18.7064   20.0382   20.4087 H   0  0  0  0  0  0  0  0  0  0  0  0
   20.6771   19.3550   20.9578 C   0  0  0  0  0  0  0  0  0  0  0  0
   21.1667   20.1419   21.5473 H   0  0  0  0  0  0  0  0  0  0  0  0
   20.8838   19.6000   19.9065 H   0  0  0  0  0  0  0  0  0  0  0  0
   21.3077   17.9739   21.2537 C   0  0  0  0  0  0  0  0  0  0  0  0
   21.1213   17.6446   22.2813 H   0  0  0  0  0  0  0  0  0  0  0  0
   22.3946   18.0067   21.1039 H   0  0  0  0  0  0  0  0  0  0  0  0
   20.9025   17.2083   20.5793 H   0  0  0  0  0  0  0  0  0  0  0  0
   20.1066   18.8379   26.7475 C   0  0  0  0  0  0  0  0  0  0  0  0
   20.1636   19.8960   27.0121 H   0  0  0  0  0  0  0  0  0  0  0  0
   19.0695   18.5606   26.5487 H   0  0  0  0  0  0  0  0  0  0  0  0
   20.4979   18.2313   27.5673 H   0  0  0  0  0  0  0  0  0  0  0  0
  1  2  1  0  0  0  0
  1  3  1  0  0  0  0
  1  4  1  0  0  0  0
  4  5  1  0  0  0  0
  4  6  1  0  0  0  0
  4  7  1  0  0  0  0
  7  8  1  0  0  0  0
  7  9  1  0  0  0  0
  7 10  1  0  0  0  0
 10 11  1  0  0  0  0
 10 12  1  0  0  0  0
 10 13  1  0  0  0  0
 13 14  1  0  0  0  0
 13 15  1  0  0  0  0
 13 16  1  0  0  0  0
 16 17  1  0  0  0  0
 16 18  1  0  0  0  0
 16 19  1  0  0  0  0
 19 20  1  0  0  0  0
 19 21  1  0  0  0  0
 19 22  1  0  0  0  0
  1 23  1  0  0  0  0
 23 24  1  0  0  0  0
 23 25  1  0  0  0  0
 23 26  1  0  0  0  0
M  END
> <VM2 Rank>
210

> <Conf_Id>
464

> <Probability>
0.00

> <Sum Probability>
100.00

> <Delta G>
6.378

> <G>
81.844

> <E>
48.629

> <-TS>
33.215

> <U+W>
27.167

> <U>
77.189

> <W>
-50.021

> <W(PB)>
-52.230

> <W(SA)>
2.209

> <Valence>
6.920

> <Coulomb>
70.049

> <VdW>
0.220

> <VdW6>
-8.979

> <VdW12>
9.199

> <Bond>
0.284

> <Angle>
1.855

> <Pdih>
4.781

> <Idih>
0.000

> <Tether>
0.000

$$$$
VeraChem MOL file


 26 25  0  0  0  0  0  0  0  0999 V2000     
   19.8641   19.6721   25.4890 N   0  3  0  0  0  0  0  0  0  0  0  0
   20.0859   20.4645   24.8684 H   0  0  0  0  0  0  0  0  0  0  0  0
   20.0348   20.0215   26.4453 H   0  0  0  0  0  0  0  0  0  0  0  0
   20.7981   18.5102   25.1978 C   0  0  0  0  0  0  0  0  0  0  0  0
   20.4995   17.6822   25.8456 H   0  0  0  0  0  0  0  0  0  0  0  0
   21.8039   18.8187   25.4938 H   0  0  0  0  0  0  0  0  0  0  0  0
   20.8369   18.0246   23.7301 C   0  0  0  0  0  0  0  0  0  0  0  0
   21.4780   17.1337   23.7005 H   0  0  0  0  0  0  0  0  0  0  0  0
   19.8428   17.6864   23.4172 H   0  0  0  0  0  0  0  0  0  0  0  0
   21.4161   19.0693   22.7382 C   0  0  0  0  0  0  0  0  0  0  0  0
   21.9080   18.5454   21.9071 H   0  0  0  0  0  0  0  0  0  0  0  0
   22.2177   19.6266   23.2426 H   0  0  0  0  0  0  0  0  0  0  0  0
   20.3811   20.0718   22.1580 C   0  0  0  0  0  0  0  0  0  0  0  0
   19.5766   20.2699   22.8750 H   0  0  0  0  0  0  0  0  0  0  0  0
   20.8871   21.0351   22.0043 H   0  0  0  0  0  0  0  0  0  0  0  0
   19.7682   19.6453   20.7997 C   0  0  0  0  0  0  0  0  0  0  0  0
   20.5666   19.5345   20.0526 H   0  0  0  0  0  0  0  0  0  0  0  0
   19.1233   20.4577   20.4365 H   0  0  0  0  0  0  0  0  0  0  0  0
   18.9379   18.3442   20.8609 C   0  0  0  0  0  0  0  0  0  0  0  0
   19.5712   17.4763   21.0826 H   0  0  0  0  0  0  0  0  0  0  0  0
   18.4488   18.1557   19.8965 H   0  0  0  0  0  0  0  0  0  0  0  0
   18.1543   18.4100   21.6267 H   0  0  0  0  0  0  0  0  0  0  0  0
   18.4057   19.2525   25.3434 C   0  0  0  0  0  0  0  0  0  0  0  0
   18.1992   18.4301   26.0318 H   0  0  0  0  0  0  0  0  0  0  0  0
   17.7633   20.1031   25.5819 H   0  0  0  0  0  0  0  0  0  0  0  0
   18.2232   18.9301   24.3163 H   0  0  0  0  0  0  0  0  0  0  0  0
  1  2  1  0  0  0  0
  1  3  1  0  0  0  0
  1  4  1  0  0  0  0
  4  5  1  0  0  0  0
  4  6  1  0  0  0  0
  4  7  1  0  0  0  0
  7  8  1  0  0  0  0
  7  9  1  0  0  0  0
  7 10  1  0  0  0  0
 10 11  1  0  0  0  0
 10 12  1  0  0  0  0
 10 13  1  0  0  0  0
 13 14  1  0  0  0  0
 13 15  1  0  0  0  0
 13 16  1  0  0  0  0
 16 17  1  0  0  0  0
 16 18  1  0  0  0  0
 16 19  1  0  0  0  0
 19 20  1  0  0  0  0
 19 21  1  0  0  0  0
 19 22  1  0  0  0  0
  1 23  1  0  0  0  0
 23 24  1  0  0  0  0
 23 25  1  0  0  0  0
 23 26  1  0  0  0  0
M  END
> <VM2 Rank>
211

> <Conf_Id>
239

> <Probability>
0.00

> <Sum Probability>
100.00

> <Delta G>
6.412

> <G>
81.878

> <E>
48.644

> <-TS>
33.235

> <U+W>
27.182

> <U>
77.340

> <W>
-50.158

> <W(PB)>
-52.285

> <W(SA)>
2.128

> <Valence>
6.847

> <Coulomb>
70.349

> <VdW>
0.144

> <VdW6>
-9.591

> <VdW12>
9.736

> <Bond>
0.315

> <Angle>
1.724

> <Pdih>
4.808

> <Idih>
0.000

> <Tether>
0.000

$$$$
VeraChem MOL file


 26 25  0  0  0  0  0  0  0  0999 V2000     
   19.9573   19.6816   25.4925 N   0  3  0  0  0  0  0  0  0  0  0  0
   19.6522   19.9818   26.4319 H   0  0  0  0  0  0  0  0  0  0  0  0
   19.6224   20.4165   24.8522 H   0  0  0  0  0  0  0  0  0  0  0  0
   19.3030   18.3556   25.1448 C   0  0  0  0  0  0  0  0  0  0  0  0
   18.2372   18.4500   25.3675 H   0  0  0  0  0  0  0  0  0  0  0  0
   19.7184   17.6013   25.8178 H   0  0  0  0  0  0  0  0  0  0  0  0
   19.4670   17.8832   23.6815 C   0  0  0  0  0  0  0  0  0  0  0  0
   20.5287   17.7574   23.4414 H   0  0  0  0  0  0  0  0  0  0  0  0
   19.0250   16.8805   23.6133 H   0  0  0  0  0  0  0  0  0  0  0  0
   18.7577   18.7951   22.6442 C   0  0  0  0  0  0  0  0  0  0  0  0
   17.8262   19.1736   23.0874 H   0  0  0  0  0  0  0  0  0  0  0  0
   18.4422   18.1879   21.7845 H   0  0  0  0  0  0  0  0  0  0  0  0
   19.6046   19.9918   22.1306 C   0  0  0  0  0  0  0  0  0  0  0  0
   18.9249   20.8328   21.9352 H   0  0  0  0  0  0  0  0  0  0  0  0
   20.2998   20.3442   22.9006 H   0  0  0  0  0  0  0  0  0  0  0  0
   20.3848   19.7090   20.8214 C   0  0  0  0  0  0  0  0  0  0  0  0
   20.8743   20.6385   20.4984 H   0  0  0  0  0  0  0  0  0  0  0  0
   19.6798   19.4435   20.0212 H   0  0  0  0  0  0  0  0  0  0  0  0
   21.4564   18.6040   20.9495 C   0  0  0  0  0  0  0  0  0  0  0  0
   22.0396   18.5261   20.0229 H   0  0  0  0  0  0  0  0  0  0  0  0
   20.9993   17.6237   21.1326 H   0  0  0  0  0  0  0  0  0  0  0  0
   22.1548   18.8224   21.7675 H   0  0  0  0  0  0  0  0  0  0  0  0
   21.4772   19.5697   25.4526 C   0  0  0  0  0  0  0  0  0  0  0  0
   21.7985   18.8019   26.1597 H   0  0  0  0  0  0  0  0  0  0  0  0
   21.7932   19.2989   24.4432 H   0  0  0  0  0  0  0  0  0  0  0  0
   21.9140   20.5318   25.7294 H   0  0  0  0  0  0  0  0  0  0  0  0
  1  2  1  0  0  0  0
  1  3  1  0  0  0  0
  1  4  1  0  0  0  0
  4  5  1  0  0  0  0
  4  6  1  0  0  0  0
  4  7  1  0  0  0  0
  7  8  1  0  0  0  0
  7  9  1  0  0  0  0
  7 10  1  0  0  0  0
 10 11  1  0  0  0  0
 10 12  1  0  0  0  0
 10 13  1  0  0  0  0
 13 14  1  0  0  0  0
 13 15  1  0  0  0  0
 13 16  1  0  0  0  0
 16 17  1  0  0  0  0
 16 18  1  0  0  0  0
 16 19  1  0  0  0  0
 19 20  1  0  0  0  0
 19 21  1  0  0  0  0
 19 22  1  0  0  0  0
  1 23  1  0  0  0  0
 23 24  1  0  0  0  0
 23 25  1  0  0  0  0
 23 26  1  0  0  0  0
M  END
> <VM2 Rank>
212

> <Conf_Id>
1570

> <Probability>
0.00

> <Sum Probability>
100.00

> <Delta G>
6.460

> <G>
81.926

> <E>
48.692

> <-TS>
33.234

> <U+W>
27.230

> <U>
77.340

> <W>
-50.110

> <W(PB)>
-52.264

> <W(SA)>
2.154

> <Valence>
6.848

> <Coulomb>
70.348

> <VdW>
0.144

> <VdW6>
-9.591

> <VdW12>
9.735

> <Bond>
0.315

> <Angle>
1.723

> <Pdih>
4.810

> <Idih>
0.000

> <Tether>
0.000

$$$$
VeraChem MOL file


 26 25  0  0  0  0  0  0  0  0999 V2000     
   19.7598   19.3604   25.4709 N   0  3  0  0  0  0  0  0  0  0  0  0
   19.4410   18.6345   26.1313 H   0  0  0  0  0  0  0  0  0  0  0  0
   18.9038   19.7255   25.0276 H   0  0  0  0  0  0  0  0  0  0  0  0
   20.6703   18.7494   24.4236 C   0  0  0  0  0  0  0  0  0  0  0  0
   21.5515   18.3630   24.9419 H   0  0  0  0  0  0  0  0  0  0  0  0
   20.9942   19.5492   23.7561 H   0  0  0  0  0  0  0  0  0  0  0  0
   20.0174   17.6101   23.6121 C   0  0  0  0  0  0  0  0  0  0  0  0
   20.7752   17.1265   22.9821 H   0  0  0  0  0  0  0  0  0  0  0  0
   19.6795   16.8397   24.3180 H   0  0  0  0  0  0  0  0  0  0  0  0
   18.8152   18.0507   22.7355 C   0  0  0  0  0  0  0  0  0  0  0  0
   18.1774   18.7574   23.2817 H   0  0  0  0  0  0  0  0  0  0  0  0
   18.1861   17.1663   22.5636 H   0  0  0  0  0  0  0  0  0  0  0  0
   19.1763   18.6347   21.3427 C   0  0  0  0  0  0  0  0  0  0  0  0
   19.7053   17.8796   20.7449 H   0  0  0  0  0  0  0  0  0  0  0  0
   18.2323   18.8174   20.8107 H   0  0  0  0  0  0  0  0  0  0  0  0
   19.9777   19.9610   21.3584 C   0  0  0  0  0  0  0  0  0  0  0  0
   19.7753   20.5227   22.2802 H   0  0  0  0  0  0  0  0  0  0  0  0
   19.6178   20.5980   20.5382 H   0  0  0  0  0  0  0  0  0  0  0  0
   21.4981   19.7527   21.1643 C   0  0  0  0  0  0  0  0  0  0  0  0
   21.9246   19.0873   21.9228 H   0  0  0  0  0  0  0  0  0  0  0  0
   22.0292   20.7117   21.2204 H   0  0  0  0  0  0  0  0  0  0  0  0
   21.7080   19.3136   20.1803 H   0  0  0  0  0  0  0  0  0  0  0  0
   20.4933   20.4710   26.2095 C   0  0  0  0  0  0  0  0  0  0  0  0
   20.7923   21.2410   25.4949 H   0  0  0  0  0  0  0  0  0  0  0  0
   19.8273   20.9027   26.9600 H   0  0  0  0  0  0  0  0  0  0  0  0
   21.3777   20.0548   26.6969 H   0  0  0  0  0  0  0  0  0  0  0  0
  1  2  1  0  0  0  0
  1  3  1  0  0  0  0
  1  4  1  0  0  0  0
  4  5  1  0  0  0  0
  4  6  1  0  0  0  0
  4  7  1  0  0  0  0
  7  8  1  0  0  0  0
  7  9  1  0  0  0  0
  7 10  1  0  0  0  0
 10 11  1  0  0  0  0
 10 12  1  0  0  0  0
 10 13  1  0  0  0  0
 13 14  1  0  0  0  0
 13 15  1  0  0  0  0
 13 16  1  0  0  0  0
 16 17  1  0  0  0  0
 16 18  1  0  0  0  0
 16 19  1  0  0  0  0
 19 20  1  0  0  0  0
 19 21  1  0  0  0  0
 19 22  1  0  0  0  0
  1 23  1  0  0  0  0
 23 24  1  0  0  0  0
 23 25  1  0  0  0  0
 23 26  1  0  0  0  0
M  END
> <VM2 Rank>
213

> <Conf_Id>
436

> <Probability>
0.00

> <Sum Probability>
100.00

> <Delta G>
6.483

> <G>
81.949

> <E>
48.856

> <-TS>
33.093

> <U+W>
27.394

> <U>
77.061

> <W>
-49.667

> <W(PB)>
-51.856

> <W(SA)>
2.188

> <Valence>
6.801

> <Coulomb>
70.341

> <VdW>
-0.081

> <VdW6>
-8.958

> <VdW12>
8.877

> <Bond>
0.269

> <Angle>
1.891

> <Pdih>
4.641

> <Idih>
0.000

> <Tether>
0.000

$$$$
VeraChem MOL file


 26 25  0  0  0  0  0  0  0  0999 V2000     
   20.6270   18.9950   25.2917 N   0  3  0  0  0  0  0  0  0  0  0  0
   20.9664   19.8331   24.7964 H   0  0  0  0  0  0  0  0  0  0  0  0
   21.1946   18.2098   24.9375 H   0  0  0  0  0  0  0  0  0  0  0  0
   19.1640   18.7667   24.9699 C   0  0  0  0  0  0  0  0  0  0  0  0
   18.6000   19.6174   25.3605 H   0  0  0  0  0  0  0  0  0  0  0  0
   18.8456   17.8724   25.5115 H   0  0  0  0  0  0  0  0  0  0  0  0
   18.8526   18.5891   23.4684 C   0  0  0  0  0  0  0  0  0  0  0  0
   19.3897   17.7169   23.0771 H   0  0  0  0  0  0  0  0  0  0  0  0
   17.7844   18.3505   23.3813 H   0  0  0  0  0  0  0  0  0  0  0  0
   19.1412   19.8546   22.6167 C   0  0  0  0  0  0  0  0  0  0  0  0
   18.9230   20.7457   23.2217 H   0  0  0  0  0  0  0  0  0  0  0  0
   18.4333   19.8959   21.7773 H   0  0  0  0  0  0  0  0  0  0  0  0
   20.5886   19.9510   22.0608 C   0  0  0  0  0  0  0  0  0  0  0  0
   20.8802   21.0103   22.0442 H   0  0  0  0  0  0  0  0  0  0  0  0
   21.3027   19.4549   22.7286 H   0  0  0  0  0  0  0  0  0  0  0  0
   20.7571   19.3967   20.6231 C   0  0  0  0  0  0  0  0  0  0  0  0
   21.7872   19.5890   20.2917 H   0  0  0  0  0  0  0  0  0  0  0  0
   20.1074   19.9543   19.9340 H   0  0  0  0  0  0  0  0  0  0  0  0
   20.4679   17.8850   20.4917 C   0  0  0  0  0  0  0  0  0  0  0  0
   19.4119   17.6613   20.6875 H   0  0  0  0  0  0  0  0  0  0  0  0
   21.0831   17.3020   21.1891 H   0  0  0  0  0  0  0  0  0  0  0  0
   20.6943   17.5381   19.4752 H   0  0  0  0  0  0  0  0  0  0  0  0
   20.8096   19.1519   26.7947 C   0  0  0  0  0  0  0  0  0  0  0  0
   21.8671   19.3180   27.0119 H   0  0  0  0  0  0  0  0  0  0  0  0
   20.2233   20.0061   27.1404 H   0  0  0  0  0  0  0  0  0  0  0  0
   20.4688   18.2426   27.2946 H   0  0  0  0  0  0  0  0  0  0  0  0
  1  2  1  0  0  0  0
  1  3  1  0  0  0  0
  1  4  1  0  0  0  0
  4  5  1  0  0  0  0
  4  6  1  0  0  0  0
  4  7  1  0  0  0  0
  7  8  1  0  0  0  0
  7  9  1  0  0  0  0
  7 10  1  0  0  0  0
 10 11  1  0  0  0  0
 10 12  1  0  0  0  0
 10 13  1  0  0  0  0
 13 14  1  0  0  0  0
 13 15  1  0  0  0  0
 13 16  1  0  0  0  0
 16 17  1  0  0  0  0
 16 18  1  0  0  0  0
 16 19  1  0  0  0  0
 19 20  1  0  0  0  0
 19 21  1  0  0  0  0
 19 22  1  0  0  0  0
  1 23  1  0  0  0  0
 23 24  1  0  0  0  0
 23 25  1  0  0  0  0
 23 26  1  0  0  0  0
M  END
> <VM2 Rank>
214

> <Conf_Id>
1004

> <Probability>
0.00

> <Sum Probability>
100.00

> <Delta G>
6.507

> <G>
81.973

> <E>
49.206

> <-TS>
32.767

> <U+W>
27.744

> <U>
77.266

> <W>
-49.522

> <W(PB)>
-51.736

> <W(SA)>
2.214

> <Valence>
6.548

> <Coulomb>
70.467

> <VdW>
0.250

> <VdW6>
-8.286

> <VdW12>
8.536

> <Bond>
0.272

> <Angle>
1.407

> <Pdih>
4.870

> <Idih>
0.000

> <Tether>
0.000

$$$$
VeraChem MOL file


 26 25  0  0  0  0  0  0  0  0999 V2000     
   19.3636   18.8670   25.2470 N   0  3  0  0  0  0  0  0  0  0  0  0
   18.9911   17.9865   24.8595 H   0  0  0  0  0  0  0  0  0  0  0  0
   18.8987   19.6236   24.7232 H   0  0  0  0  0  0  0  0  0  0  0  0
   20.8615   18.9387   25.0301 C   0  0  0  0  0  0  0  0  0  0  0  0
   21.3140   18.1224   25.5990 H   0  0  0  0  0  0  0  0  0  0  0  0
   21.2150   19.8823   25.4533 H   0  0  0  0  0  0  0  0  0  0  0  0
   21.3066   18.8379   23.5554 C   0  0  0  0  0  0  0  0  0  0  0  0
   22.4044   18.8189   23.5450 H   0  0  0  0  0  0  0  0  0  0  0  0
   20.9840   17.8785   23.1337 H   0  0  0  0  0  0  0  0  0  0  0  0
   20.8305   20.0258   22.6766 C   0  0  0  0  0  0  0  0  0  0  0  0
   21.5728   20.2142   21.8887 H   0  0  0  0  0  0  0  0  0  0  0  0
   20.8226   20.9382   23.2892 H   0  0  0  0  0  0  0  0  0  0  0  0
   19.4358   19.8339   22.0200 C   0  0  0  0  0  0  0  0  0  0  0  0
   18.7907   19.1999   22.6394 H   0  0  0  0  0  0  0  0  0  0  0  0
   18.9395   20.8133   21.9755 H   0  0  0  0  0  0  0  0  0  0  0  0
   19.4832   19.2676   20.5779 C   0  0  0  0  0  0  0  0  0  0  0  0
   20.0545   19.9492   19.9322 H   0  0  0  0  0  0  0  0  0  0  0  0
   18.4613   19.2517   20.1737 H   0  0  0  0  0  0  0  0  0  0  0  0
   20.0783   17.8456   20.4776 C   0  0  0  0  0  0  0  0  0  0  0  0
   19.5451   17.1460   21.1341 H   0  0  0  0  0  0  0  0  0  0  0  0
   21.1413   17.8369   20.7487 H   0  0  0  0  0  0  0  0  0  0  0  0
   19.9981   17.4678   19.4501 H   0  0  0  0  0  0  0  0  0  0  0  0
   19.0485   18.9735   26.7324 C   0  0  0  0  0  0  0  0  0  0  0  0
   19.4261   19.9254   27.1123 H   0  0  0  0  0  0  0  0  0  0  0  0
   17.9666   18.9229   26.8738 H   0  0  0  0  0  0  0  0  0  0  0  0
   19.5286   18.1473   27.2614 H   0  0  0  0  0  0  0  0  0  0  0  0
  1  2  1  0  0  0  0
  1  3  1  0  0  0  0
  1  4  1  0  0  0  0
  4  5  1  0  0  0  0
  4  6  1  0  0  0  0
  4  7  1  0  0  0  0
  7  8  1  0  0  0  0
  7  9  1  0  0  0  0
  7 10  1  0  0  0  0
 10 11  1  0  0  0  0
 10 12  1  0  0  0  0
 10 13  1  0  0  0  0
 13 14  1  0  0  0  0
 13 15  1  0  0  0  0
 13 16  1  0  0  0  0
 16 17  1  0  0  0  0
 16 18  1  0  0  0  0
 16 19  1  0  0  0  0
 19 20  1  0  0  0  0
 19 21  1  0  0  0  0
 19 22  1  0  0  0  0
  1 23  1  0  0  0  0
 23 24  1  0  0  0  0
 23 25  1  0  0  0  0
 23 26  1  0  0  0  0
M  END
> <VM2 Rank>
215

> <Conf_Id>
1099

> <Probability>
0.00

> <Sum Probability>
100.00

> <Delta G>
6.530

> <G>
81.996

> <E>
49.229

> <-TS>
32.767

> <U+W>
27.767

> <U>
77.265

> <W>
-49.498

> <W(PB)>
-51.733

> <W(SA)>
2.235

> <Valence>
6.549

> <Coulomb>
70.466

> <VdW>
0.250

> <VdW6>
-8.286

> <VdW12>
8.536

> <Bond>
0.272

> <Angle>
1.406

> <Pdih>
4.871

> <Idih>
0.000

> <Tether>
0.000

$$$$
VeraChem MOL file


 26 25  0  0  0  0  0  0  0  0999 V2000     
   20.7481   18.8779   24.8498 N   0  3  0  0  0  0  0  0  0  0  0  0
   21.0796   18.7961   23.8768 H   0  0  0  0  0  0  0  0  0  0  0  0
   20.8419   17.9351   25.2589 H   0  0  0  0  0  0  0  0  0  0  0  0
   19.2937   19.3078   24.8592 C   0  0  0  0  0  0  0  0  0  0  0  0
   19.2292   20.3262   24.4683 H   0  0  0  0  0  0  0  0  0  0  0  0
   18.9737   19.3239   25.9042 H   0  0  0  0  0  0  0  0  0  0  0  0
   18.3571   18.3799   24.0582 C   0  0  0  0  0  0  0  0  0  0  0  0
   18.6034   17.3310   24.2705 H   0  0  0  0  0  0  0  0  0  0  0  0
   17.3368   18.5288   24.4358 H   0  0  0  0  0  0  0  0  0  0  0  0
   18.3360   18.6249   22.5252 C   0  0  0  0  0  0  0  0  0  0  0  0
   17.9567   19.6339   22.3119 H   0  0  0  0  0  0  0  0  0  0  0  0
   17.5966   17.9365   22.0928 H   0  0  0  0  0  0  0  0  0  0  0  0
   19.6863   18.3977   21.7979 C   0  0  0  0  0  0  0  0  0  0  0  0
   20.2795   17.6400   22.3268 H   0  0  0  0  0  0  0  0  0  0  0  0
   19.4806   17.9706   20.8064 H   0  0  0  0  0  0  0  0  0  0  0  0
   20.4965   19.7016   21.5933 C   0  0  0  0  0  0  0  0  0  0  0  0
   20.5972   20.2583   22.5325 H   0  0  0  0  0  0  0  0  0  0  0  0
   19.9488   20.3637   20.9078 H   0  0  0  0  0  0  0  0  0  0  0  0
   21.8980   19.4180   21.0123 C   0  0  0  0  0  0  0  0  0  0  0  0
   22.4497   20.3543   20.8574 H   0  0  0  0  0  0  0  0  0  0  0  0
   21.8266   18.9063   20.0436 H   0  0  0  0  0  0  0  0  0  0  0  0
   22.4897   18.7871   21.6881 H   0  0  0  0  0  0  0  0  0  0  0  0
   21.5923   19.8823   25.6211 C   0  0  0  0  0  0  0  0  0  0  0  0
   22.6363   19.5616   25.6036 H   0  0  0  0  0  0  0  0  0  0  0  0
   21.5001   20.8645   25.1524 H   0  0  0  0  0  0  0  0  0  0  0  0
   21.2387   19.9304   26.6533 H   0  0  0  0  0  0  0  0  0  0  0  0
  1  2  1  0  0  0  0
  1  3  1  0  0  0  0
  1  4  1  0  0  0  0
  4  5  1  0  0  0  0
  4  6  1  0  0  0  0
  4  7  1  0  0  0  0
  7  8  1  0  0  0  0
  7  9  1  0  0  0  0
  7 10  1  0  0  0  0
 10 11  1  0  0  0  0
 10 12  1  0  0  0  0
 10 13  1  0  0  0  0
 13 14  1  0  0  0  0
 13 15  1  0  0  0  0
 13 16  1  0  0  0  0
 16 17  1  0  0  0  0
 16 18  1  0  0  0  0
 16 19  1  0  0  0  0
 19 20  1  0  0  0  0
 19 21  1  0  0  0  0
 19 22  1  0  0  0  0
  1 23  1  0  0  0  0
 23 24  1  0  0  0  0
 23 25  1  0  0  0  0
 23 26  1  0  0  0  0
M  END
> <VM2 Rank>
216

> <Conf_Id>
1213

> <Probability>
0.00

> <Sum Probability>
100.00

> <Delta G>
7.041

> <G>
82.507

> <E>
49.521

> <-TS>
32.986

> <U+W>
28.059

> <U>
76.549

> <W>
-48.490

> <W(PB)>
-50.670

> <W(SA)>
2.180

> <Valence>
5.808

> <Coulomb>
71.051

> <VdW>
-0.311

> <VdW6>
-8.913

> <VdW12>
8.601

> <Bond>
0.232

> <Angle>
1.493

> <Pdih>
4.084

> <Idih>
0.000

> <Tether>
0.000

$$$$
VeraChem MOL file


 26 25  0  0  0  0  0  0  0  0999 V2000     
   19.3007   18.7294   24.7984 N   0  3  0  0  0  0  0  0  0  0  0  0
   19.3715   17.7843   25.2067 H   0  0  0  0  0  0  0  0  0  0  0  0
   19.0615   18.5891   23.8052 H   0  0  0  0  0  0  0  0  0  0  0  0
   20.6334   19.4452   24.9066 C   0  0  0  0  0  0  0  0  0  0  0  0
   20.8694   19.5184   25.9713 H   0  0  0  0  0  0  0  0  0  0  0  0
   20.5173   20.4584   24.5139 H   0  0  0  0  0  0  0  0  0  0  0  0
   21.7924   18.7323   24.1799 C   0  0  0  0  0  0  0  0  0  0  0  0
   22.7323   19.0823   24.6269 H   0  0  0  0  0  0  0  0  0  0  0  0
   21.7496   17.6537   24.3819 H   0  0  0  0  0  0  0  0  0  0  0  0
   21.8706   18.9874   22.6504 C   0  0  0  0  0  0  0  0  0  0  0  0
   22.7626   18.4663   22.2758 H   0  0  0  0  0  0  0  0  0  0  0  0
   22.0515   20.0539   22.4568 H   0  0  0  0  0  0  0  0  0  0  0  0
   20.6487   18.4964   21.8320 C   0  0  0  0  0  0  0  0  0  0  0  0
   21.0056   18.1270   20.8604 H   0  0  0  0  0  0  0  0  0  0  0  0
   20.1860   17.6305   22.3235 H   0  0  0  0  0  0  0  0  0  0  0  0
   19.6074   19.6104   21.5618 C   0  0  0  0  0  0  0  0  0  0  0  0
   20.0560   20.3746   20.9114 H   0  0  0  0  0  0  0  0  0  0  0  0
   19.3305   20.1286   22.4876 H   0  0  0  0  0  0  0  0  0  0  0  0
   18.3366   19.0527   20.8865 C   0  0  0  0  0  0  0  0  0  0  0  0
   17.8393   18.3102   21.5238 H   0  0  0  0  0  0  0  0  0  0  0  0
   18.5776   18.5730   19.9288 H   0  0  0  0  0  0  0  0  0  0  0  0
   17.6186   19.8588   20.6866 H   0  0  0  0  0  0  0  0  0  0  0  0
   18.2183   19.5362   25.5015 C   0  0  0  0  0  0  0  0  0  0  0  0
   17.2649   19.0106   25.4132 H   0  0  0  0  0  0  0  0  0  0  0  0
   18.4818   19.6475   26.5556 H   0  0  0  0  0  0  0  0  0  0  0  0
   18.1421   20.5201   25.0334 H   0  0  0  0  0  0  0  0  0  0  0  0
  1  2  1  0  0  0  0
  1  3  1  0  0  0  0
  1  4  1  0  0  0  0
  4  5  1  0  0  0  0
  4  6  1  0  0  0  0
  4  7  1  0  0  0  0
  7  8  1  0  0  0  0
  7  9  1  0  0  0  0
  7 10  1  0  0  0  0
 10 11  1  0  0  0  0
 10 12  1  0  0  0  0
 10 13  1  0  0  0  0
 13 14  1  0  0  0  0
 13 15  1  0  0  0  0
 13 16  1  0  0  0  0
 16 17  1  0  0  0  0
 16 18  1  0  0  0  0
 16 19  1  0  0  0  0
 19 20  1  0  0  0  0
 19 21  1  0  0  0  0
 19 22  1  0  0  0  0
  1 23  1  0  0  0  0
 23 24  1  0  0  0  0
 23 25  1  0  0  0  0
 23 26  1  0  0  0  0
M  END
> <VM2 Rank>
217

> <Conf_Id>
1723

> <Probability>
0.00

> <Sum Probability>
100.00

> <Delta G>
7.049

> <G>
82.515

> <E>
49.529

> <-TS>
32.986

> <U+W>
28.067

> <U>
76.549

> <W>
-48.482

> <W(PB)>
-50.645

> <W(SA)>
2.163

> <Valence>
5.808

> <Coulomb>
71.052

> <VdW>
-0.311

> <VdW6>
-8.913

> <VdW12>
8.602

> <Bond>
0.232

> <Angle>
1.493

> <Pdih>
4.083

> <Idih>
0.000

> <Tether>
0.000

$$$$
VeraChem MOL file


 26 25  0  0  0  0  0  0  0  0999 V2000     
   19.3339   19.1840   25.0740 N   0  3  0  0  0  0  0  0  0  0  0  0
   19.0154   18.3687   25.6207 H   0  0  0  0  0  0  0  0  0  0  0  0
   18.8202   19.1394   24.1817 H   0  0  0  0  0  0  0  0  0  0  0  0
   20.8246   19.0861   24.8137 C   0  0  0  0  0  0  0  0  0  0  0  0
   21.3171   19.0732   25.7893 H   0  0  0  0  0  0  0  0  0  0  0  0
   21.1456   19.9855   24.2825 H   0  0  0  0  0  0  0  0  0  0  0  0
   21.2435   17.8321   24.0195 C   0  0  0  0  0  0  0  0  0  0  0  0
   22.2991   17.6315   24.2457 H   0  0  0  0  0  0  0  0  0  0  0  0
   20.6890   16.9571   24.3838 H   0  0  0  0  0  0  0  0  0  0  0  0
   21.1044   17.9533   22.4784 C   0  0  0  0  0  0  0  0  0  0  0  0
   21.4897   17.0220   22.0406 H   0  0  0  0  0  0  0  0  0  0  0  0
   21.7692   18.7447   22.1097 H   0  0  0  0  0  0  0  0  0  0  0  0
   19.6580   18.1644   21.9550 C   0  0  0  0  0  0  0  0  0  0  0  0
   19.5432   17.6198   21.0074 H   0  0  0  0  0  0  0  0  0  0  0  0
   18.9427   17.6942   22.6426 H   0  0  0  0  0  0  0  0  0  0  0  0
   19.2715   19.6464   21.7084 C   0  0  0  0  0  0  0  0  0  0  0  0
   19.5140   20.2667   22.5797 H   0  0  0  0  0  0  0  0  0  0  0  0
   18.1824   19.7105   21.5751 H   0  0  0  0  0  0  0  0  0  0  0  0
   19.9531   20.2457   20.4568 C   0  0  0  0  0  0  0  0  0  0  0  0
   19.6086   21.2741   20.2871 H   0  0  0  0  0  0  0  0  0  0  0  0
   19.7139   19.6614   19.5589 H   0  0  0  0  0  0  0  0  0  0  0  0
   21.0442   20.2763   20.5632 H   0  0  0  0  0  0  0  0  0  0  0  0
   19.0190   20.4780   25.8111 C   0  0  0  0  0  0  0  0  0  0  0  0
   19.5523   20.4866   26.7643 H   0  0  0  0  0  0  0  0  0  0  0  0
   19.3380   21.3259   25.2011 H   0  0  0  0  0  0  0  0  0  0  0  0
   17.9430   20.5359   25.9901 H   0  0  0  0  0  0  0  0  0  0  0  0
  1  2  1  0  0  0  0
  1  3  1  0  0  0  0
  1  4  1  0  0  0  0
  4  5  1  0  0  0  0
  4  6  1  0  0  0  0
  4  7  1  0  0  0  0
  7  8  1  0  0  0  0
  7  9  1  0  0  0  0
  7 10  1  0  0  0  0
 10 11  1  0  0  0  0
 10 12  1  0  0  0  0
 10 13  1  0  0  0  0
 13 14  1  0  0  0  0
 13 15  1  0  0  0  0
 13 16  1  0  0  0  0
 16 17  1  0  0  0  0
 16 18  1  0  0  0  0
 16 19  1  0  0  0  0
 19 20  1  0  0  0  0
 19 21  1  0  0  0  0
 19 22  1  0  0  0  0
  1 23  1  0  0  0  0
 23 24  1  0  0  0  0
 23 25  1  0  0  0  0
 23 26  1  0  0  0  0
M  END
> <VM2 Rank>
218

> <Conf_Id>
744

> <Probability>
0.00

> <Sum Probability>
100.00

> <Delta G>
7.132

> <G>
82.598

> <E>
49.618

> <-TS>
32.980

> <U+W>
28.156

> <U>
77.517

> <W>
-49.361

> <W(PB)>
-51.554

> <W(SA)>
2.194

> <Valence>
6.532

> <Coulomb>
71.087

> <VdW>
-0.102

> <VdW6>
-9.038

> <VdW12>
8.936

> <Bond>
0.274

> <Angle>
1.678

> <Pdih>
4.580

> <Idih>
0.000

> <Tether>
0.000

$$$$
VeraChem MOL file


 26 25  0  0  0  0  0  0  0  0999 V2000     
   20.6037   19.3158   25.1190 N   0  3  0  0  0  0  0  0  0  0  0  0
   21.1766   19.3841   24.2650 H   0  0  0  0  0  0  0  0  0  0  0  0
   21.0438   18.5793   25.6924 H   0  0  0  0  0  0  0  0  0  0  0  0
   19.1867   18.9160   24.7558 C   0  0  0  0  0  0  0  0  0  0  0  0
   18.7259   19.7342   24.1970 H   0  0  0  0  0  0  0  0  0  0  0  0
   18.6404   18.7952   25.6947 H   0  0  0  0  0  0  0  0  0  0  0  0
   19.0906   17.6086   23.9434 C   0  0  0  0  0  0  0  0  0  0  0  0
   19.7860   16.8633   24.3518 H   0  0  0  0  0  0  0  0  0  0  0  0
   18.0854   17.1940   24.0966 H   0  0  0  0  0  0  0  0  0  0  0  0
   19.3093   17.7669   22.4149 C   0  0  0  0  0  0  0  0  0  0  0  0
   18.5236   18.4078   21.9950 H   0  0  0  0  0  0  0  0  0  0  0  0
   19.1547   16.7796   21.9580 H   0  0  0  0  0  0  0  0  0  0  0  0
   20.7145   18.2741   21.9924 C   0  0  0  0  0  0  0  0  0  0  0  0
   21.4613   17.9557   22.7317 H   0  0  0  0  0  0  0  0  0  0  0  0
   21.0046   17.7715   21.0592 H   0  0  0  0  0  0  0  0  0  0  0  0
   20.8049   19.8057   21.7627 C   0  0  0  0  0  0  0  0  0  0  0  0
   21.8643   20.0928   21.7055 H   0  0  0  0  0  0  0  0  0  0  0  0
   20.3800   20.3566   22.6103 H   0  0  0  0  0  0  0  0  0  0  0  0
   20.1042   20.2614   20.4621 C   0  0  0  0  0  0  0  0  0  0  0  0
   20.5206   19.7452   19.5873 H   0  0  0  0  0  0  0  0  0  0  0  0
   20.2413   21.3398   20.3094 H   0  0  0  0  0  0  0  0  0  0  0  0
   19.0254   20.0665   20.4915 H   0  0  0  0  0  0  0  0  0  0  0  0
   20.5940   20.6415   25.8668 C   0  0  0  0  0  0  0  0  0  0  0  0
   20.0051   20.5337   26.7803 H   0  0  0  0  0  0  0  0  0  0  0  0
   21.6200   20.9178   26.1201 H   0  0  0  0  0  0  0  0  0  0  0  0
   20.1512   21.4104   25.2299 H   0  0  0  0  0  0  0  0  0  0  0  0
  1  2  1  0  0  0  0
  1  3  1  0  0  0  0
  1  4  1  0  0  0  0
  4  5  1  0  0  0  0
  4  6  1  0  0  0  0
  4  7  1  0  0  0  0
  7  8  1  0  0  0  0
  7  9  1  0  0  0  0
  7 10  1  0  0  0  0
 10 11  1  0  0  0  0
 10 12  1  0  0  0  0
 10 13  1  0  0  0  0
 13 14  1  0  0  0  0
 13 15  1  0  0  0  0
 13 16  1  0  0  0  0
 16 17  1  0  0  0  0
 16 18  1  0  0  0  0
 16 19  1  0  0  0  0
 19 20  1  0  0  0  0
 19 21  1  0  0  0  0
 19 22  1  0  0  0  0
  1 23  1  0  0  0  0
 23 24  1  0  0  0  0
 23 25  1  0  0  0  0
 23 26  1  0  0  0  0
M  END
> <VM2 Rank>
219

> <Conf_Id>
1348

> <Probability>
0.00

> <Sum Probability>
100.00

> <Delta G>
7.244

> <G>
82.710

> <E>
49.730

> <-TS>
32.980

> <U+W>
28.269

> <U>
77.517

> <W>
-49.248

> <W(PB)>
-51.417

> <W(SA)>
2.168

> <Valence>
6.532

> <Coulomb>
71.087

> <VdW>
-0.102

> <VdW6>
-9.038

> <VdW12>
8.936

> <Bond>
0.274

> <Angle>
1.677

> <Pdih>
4.581

> <Idih>
0.000

> <Tether>
0.000

$$$$
VeraChem MOL file


 26 25  0  0  0  0  0  0  0  0999 V2000     
   19.0535   18.6631   24.6572 N   0  3  0  0  0  0  0  0  0  0  0  0
   19.1834   18.2957   23.7026 H   0  0  0  0  0  0  0  0  0  0  0  0
   18.0319   18.7148   24.7976 H   0  0  0  0  0  0  0  0  0  0  0  0
   19.6518   20.0579   24.7562 C   0  0  0  0  0  0  0  0  0  0  0  0
   19.5616   20.3688   25.8001 H   0  0  0  0  0  0  0  0  0  0  0  0
   19.0378   20.7312   24.1529 H   0  0  0  0  0  0  0  0  0  0  0  0
   21.1274   20.1858   24.3132 C   0  0  0  0  0  0  0  0  0  0  0  0
   21.5192   21.1208   24.7350 H   0  0  0  0  0  0  0  0  0  0  0  0
   21.7297   19.3860   24.7619 H   0  0  0  0  0  0  0  0  0  0  0  0
   21.3577   20.2273   22.7786 C   0  0  0  0  0  0  0  0  0  0  0  0
   22.4322   20.3853   22.6115 H   0  0  0  0  0  0  0  0  0  0  0  0
   20.8617   21.1083   22.3481 H   0  0  0  0  0  0  0  0  0  0  0  0
   20.9359   18.9469   22.0133 C   0  0  0  0  0  0  0  0  0  0  0  0
   21.6687   18.7576   21.2165 H   0  0  0  0  0  0  0  0  0  0  0  0
   20.9906   18.0733   22.6765 H   0  0  0  0  0  0  0  0  0  0  0  0
   19.5389   19.0649   21.3562 C   0  0  0  0  0  0  0  0  0  0  0  0
   19.5766   19.8227   20.5608 H   0  0  0  0  0  0  0  0  0  0  0  0
   18.7920   19.4218   22.0755 H   0  0  0  0  0  0  0  0  0  0  0  0
   19.0750   17.7213   20.7548 C   0  0  0  0  0  0  0  0  0  0  0  0
   19.7797   17.3679   19.9907 H   0  0  0  0  0  0  0  0  0  0  0  0
   18.0911   17.8285   20.2797 H   0  0  0  0  0  0  0  0  0  0  0  0
   18.9929   16.9454   21.5269 H   0  0  0  0  0  0  0  0  0  0  0  0
   19.6678   17.7227   25.6876 C   0  0  0  0  0  0  0  0  0  0  0  0
   19.5069   18.1323   26.6872 H   0  0  0  0  0  0  0  0  0  0  0  0
   19.1885   16.7444   25.6089 H   0  0  0  0  0  0  0  0  0  0  0  0
   20.7379   17.6231   25.4959 H   0  0  0  0  0  0  0  0  0  0  0  0
  1  2  1  0  0  0  0
  1  3  1  0  0  0  0
  1  4  1  0  0  0  0
  4  5  1  0  0  0  0
  4  6  1  0  0  0  0
  4  7  1  0  0  0  0
  7  8  1  0  0  0  0
  7  9  1  0  0  0  0
  7 10  1  0  0  0  0
 10 11  1  0  0  0  0
 10 12  1  0  0  0  0
 10 13  1  0  0  0  0
 13 14  1  0  0  0  0
 13 15  1  0  0  0  0
 13 16  1  0  0  0  0
 16 17  1  0  0  0  0
 16 18  1  0  0  0  0
 16 19  1  0  0  0  0
 19 20  1  0  0  0  0
 19 21  1  0  0  0  0
 19 22  1  0  0  0  0
  1 23  1  0  0  0  0
 23 24  1  0  0  0  0
 23 25  1  0  0  0  0
 23 26  1  0  0  0  0
M  END
> <VM2 Rank>
220

> <Conf_Id>
795

> <Probability>
0.00

> <Sum Probability>
100.00

> <Delta G>
7.511

> <G>
82.977

> <E>
49.844

> <-TS>
33.133

> <U+W>
28.382

> <U>
77.224

> <W>
-48.842

> <W(PB)>
-51.015

> <W(SA)>
2.173

> <Valence>
6.171

> <Coulomb>
71.061

> <VdW>
-0.008

> <VdW6>
-9.540

> <VdW12>
9.532

> <Bond>
0.273

> <Angle>
1.632

> <Pdih>
4.266

> <Idih>
0.000

> <Tether>
0.000

$$$$
VeraChem MOL file


 26 25  0  0  0  0  0  0  0  0999 V2000     
   20.1914   20.0928   24.9237 N   0  3  0  0  0  0  0  0  0  0  0  0
   19.7097   20.3293   24.0441 H   0  0  0  0  0  0  0  0  0  0  0  0
   20.8131   20.8928   25.1224 H   0  0  0  0  0  0  0  0  0  0  0  0
   21.0251   18.8357   24.7332 C   0  0  0  0  0  0  0  0  0  0  0  0
   21.4399   18.5786   25.7111 H   0  0  0  0  0  0  0  0  0  0  0  0
   21.8588   19.0811   24.0704 H   0  0  0  0  0  0  0  0  0  0  0  0
   20.2694   17.6135   24.1636 C   0  0  0  0  0  0  0  0  0  0  0  0
   20.8571   16.7189   24.4080 H   0  0  0  0  0  0  0  0  0  0  0  0
   19.3089   17.4841   24.6779 H   0  0  0  0  0  0  0  0  0  0  0  0
   20.0543   17.6307   22.6268 C   0  0  0  0  0  0  0  0  0  0  0  0
   19.5840   16.6770   22.3501 H   0  0  0  0  0  0  0  0  0  0  0  0
   21.0272   17.6341   22.1188 H   0  0  0  0  0  0  0  0  0  0  0  0
   19.1538   18.7794   22.0982 C   0  0  0  0  0  0  0  0  0  0  0  0
   18.5133   18.3869   21.2961 H   0  0  0  0  0  0  0  0  0  0  0  0
   18.4596   19.1000   22.8863 H   0  0  0  0  0  0  0  0  0  0  0  0
   19.9350   19.9980   21.5415 C   0  0  0  0  0  0  0  0  0  0  0  0
   20.7094   20.3220   22.2476 H   0  0  0  0  0  0  0  0  0  0  0  0
   19.2414   20.8431   21.4290 H   0  0  0  0  0  0  0  0  0  0  0  0
   20.5889   19.7153   20.1694 C   0  0  0  0  0  0  0  0  0  0  0  0
   21.0895   20.6152   19.7893 H   0  0  0  0  0  0  0  0  0  0  0  0
   19.8372   19.4135   19.4285 H   0  0  0  0  0  0  0  0  0  0  0  0
   21.3418   18.9202   20.2339 H   0  0  0  0  0  0  0  0  0  0  0  0
   19.1900   19.9246   26.0607 C   0  0  0  0  0  0  0  0  0  0  0  0
   18.6363   20.8572   26.1899 H   0  0  0  0  0  0  0  0  0  0  0  0
   18.4966   19.1173   25.8175 H   0  0  0  0  0  0  0  0  0  0  0  0
   19.7289   19.6860   26.9802 H   0  0  0  0  0  0  0  0  0  0  0  0
  1  2  1  0  0  0  0
  1  3  1  0  0  0  0
  1  4  1  0  0  0  0
  4  5  1  0  0  0  0
  4  6  1  0  0  0  0
  4  7  1  0  0  0  0
  7  8  1  0  0  0  0
  7  9  1  0  0  0  0
  7 10  1  0  0  0  0
 10 11  1  0  0  0  0
 10 12  1  0  0  0  0
 10 13  1  0  0  0  0
 13 14  1  0  0  0  0
 13 15  1  0  0  0  0
 13 16  1  0  0  0  0
 16 17  1  0  0  0  0
 16 18  1  0  0  0  0
 16 19  1  0  0  0  0
 19 20  1  0  0  0  0
 19 21  1  0  0  0  0
 19 22  1  0  0  0  0
  1 23  1  0  0  0  0
 23 24  1  0  0  0  0
 23 25  1  0  0  0  0
 23 26  1  0  0  0  0
M  END
> <VM2 Rank>
221

> <Conf_Id>
544

> <Probability>
0.00

> <Sum Probability>
100.00

> <Delta G>
7.524

> <G>
82.990

> <E>
49.909

> <-TS>
33.080

> <U+W>
28.448

> <U>
78.200

> <W>
-49.752

> <W(PB)>
-51.918

> <W(SA)>
2.166

> <Valence>
6.881

> <Coulomb>
71.120

> <VdW>
0.200

> <VdW6>
-9.619

> <VdW12>
9.818

> <Bond>
0.310

> <Angle>
1.756

> <Pdih>
4.815

> <Idih>
0.000

> <Tether>
0.000

$$$$
VeraChem MOL file


 26 25  0  0  0  0  0  0  0  0999 V2000     
   21.0110   18.8568   24.7268 N   0  3  0  0  0  0  0  0  0  0  0  0
   21.9903   19.1065   24.9380 H   0  0  0  0  0  0  0  0  0  0  0  0
   21.0227   18.4774   23.7682 H   0  0  0  0  0  0  0  0  0  0  0  0
   20.1459   20.1067   24.7736 C   0  0  0  0  0  0  0  0  0  0  0  0
   20.6569   20.8913   24.2100 H   0  0  0  0  0  0  0  0  0  0  0  0
   20.0999   20.4223   25.8190 H   0  0  0  0  0  0  0  0  0  0  0  0
   18.7085   19.9463   24.2272 C   0  0  0  0  0  0  0  0  0  0  0  0
   18.2445   19.0410   24.6383 H   0  0  0  0  0  0  0  0  0  0  0  0
   18.1126   20.7835   24.6140 H   0  0  0  0  0  0  0  0  0  0  0  0
   18.5828   19.9525   22.6800 C   0  0  0  0  0  0  0  0  0  0  0  0
   18.9255   20.9166   22.2792 H   0  0  0  0  0  0  0  0  0  0  0  0
   17.5125   19.8980   22.4369 H   0  0  0  0  0  0  0  0  0  0  0  0
   19.3000   18.7848   21.9552 C   0  0  0  0  0  0  0  0  0  0  0  0
   19.3710   17.9128   22.6189 H   0  0  0  0  0  0  0  0  0  0  0  0
   18.6762   18.4613   21.1102 H   0  0  0  0  0  0  0  0  0  0  0  0
   20.6894   19.1789   21.3970 C   0  0  0  0  0  0  0  0  0  0  0  0
   21.2996   19.6698   22.1646 H   0  0  0  0  0  0  0  0  0  0  0  0
   20.5600   19.9203   20.5959 H   0  0  0  0  0  0  0  0  0  0  0  0
   21.4485   17.9565   20.8388 C   0  0  0  0  0  0  0  0  0  0  0  0
   20.8820   17.4774   20.0294 H   0  0  0  0  0  0  0  0  0  0  0  0
   21.6266   17.2061   21.6198 H   0  0  0  0  0  0  0  0  0  0  0  0
   22.4231   18.2576   20.4331 H   0  0  0  0  0  0  0  0  0  0  0  0
   20.5220   17.8075   25.7184 C   0  0  0  0  0  0  0  0  0  0  0  0
   20.5291   18.2340   26.7238 H   0  0  0  0  0  0  0  0  0  0  0  0
   19.5082   17.5016   25.4530 H   0  0  0  0  0  0  0  0  0  0  0  0
   21.1879   16.9426   25.6807 H   0  0  0  0  0  0  0  0  0  0  0  0
  1  2  1  0  0  0  0
  1  3  1  0  0  0  0
  1  4  1  0  0  0  0
  4  5  1  0  0  0  0
  4  6  1  0  0  0  0
  4  7  1  0  0  0  0
  7  8  1  0  0  0  0
  7  9  1  0  0  0  0
  7 10  1  0  0  0  0
 10 11  1  0  0  0  0
 10 12  1  0  0  0  0
 10 13  1  0  0  0  0
 13 14  1  0  0  0  0
 13 15  1  0  0  0  0
 13 16  1  0  0  0  0
 16 17  1  0  0  0  0
 16 18  1  0  0  0  0
 16 19  1  0  0  0  0
 19 20  1  0  0  0  0
 19 21  1  0  0  0  0
 19 22  1  0  0  0  0
  1 23  1  0  0  0  0
 23 24  1  0  0  0  0
 23 25  1  0  0  0  0
 23 26  1  0  0  0  0
M  END
> <VM2 Rank>
222

> <Conf_Id>
1828

> <Probability>
0.00

> <Sum Probability>
100.00

> <Delta G>
7.535

> <G>
83.001

> <E>
49.868

> <-TS>
33.133

> <U+W>
28.406

> <U>
77.224

> <W>
-48.817

> <W(PB)>
-51.000

> <W(SA)>
2.183

> <Valence>
6.170

> <Coulomb>
71.061

> <VdW>
-0.008

> <VdW6>
-9.539

> <VdW12>
9.532

> <Bond>
0.273

> <Angle>
1.632

> <Pdih>
4.265

> <Idih>
0.000

> <Tether>
0.000

$$$$
VeraChem MOL file


 26 25  0  0  0  0  0  0  0  0999 V2000     
   19.4569   18.4223   25.4501 N   0  3  0  0  0  0  0  0  0  0  0  0
   19.3153   17.8546   26.3005 H   0  0  0  0  0  0  0  0  0  0  0  0
   18.9377   17.9280   24.7096 H   0  0  0  0  0  0  0  0  0  0  0  0
   20.9391   18.4653   25.1171 C   0  0  0  0  0  0  0  0  0  0  0  0
   21.3717   17.5412   25.5091 H   0  0  0  0  0  0  0  0  0  0  0  0
   21.3875   19.2974   25.6656 H   0  0  0  0  0  0  0  0  0  0  0  0
   21.3006   18.5564   23.6156 C   0  0  0  0  0  0  0  0  0  0  0  0
   22.3912   18.4542   23.5403 H   0  0  0  0  0  0  0  0  0  0  0  0
   20.8837   17.6928   23.0844 H   0  0  0  0  0  0  0  0  0  0  0  0
   20.8947   19.8852   22.9240 C   0  0  0  0  0  0  0  0  0  0  0  0
   21.6360   20.1339   22.1522 H   0  0  0  0  0  0  0  0  0  0  0  0
   20.9579   20.7008   23.6572 H   0  0  0  0  0  0  0  0  0  0  0  0
   19.4820   19.8721   22.2787 C   0  0  0  0  0  0  0  0  0  0  0  0
   18.8077   19.2056   22.8305 H   0  0  0  0  0  0  0  0  0  0  0  0
   19.0518   20.8785   22.3746 H   0  0  0  0  0  0  0  0  0  0  0  0
   19.4682   19.4987   20.7743 C   0  0  0  0  0  0  0  0  0  0  0  0
   20.0736   20.2214   20.2096 H   0  0  0  0  0  0  0  0  0  0  0  0
   18.4412   19.6027   20.3970 H   0  0  0  0  0  0  0  0  0  0  0  0
   19.9643   18.0672   20.4727 C   0  0  0  0  0  0  0  0  0  0  0  0
   21.0284   17.9536   20.7144 H   0  0  0  0  0  0  0  0  0  0  0  0
   19.8430   17.8359   19.4066 H   0  0  0  0  0  0  0  0  0  0  0  0
   19.3951   17.3224   21.0437 H   0  0  0  0  0  0  0  0  0  0  0  0
   18.9022   19.8229   25.6845 C   0  0  0  0  0  0  0  0  0  0  0  0
   19.4447   20.2883   26.5102 H   0  0  0  0  0  0  0  0  0  0  0  0
   19.0250   20.4208   24.7805 H   0  0  0  0  0  0  0  0  0  0  0  0
   17.8419   19.7496   25.9361 H   0  0  0  0  0  0  0  0  0  0  0  0
  1  2  1  0  0  0  0
  1  3  1  0  0  0  0
  1  4  1  0  0  0  0
  4  5  1  0  0  0  0
  4  6  1  0  0  0  0
  4  7  1  0  0  0  0
  7  8  1  0  0  0  0
  7  9  1  0  0  0  0
  7 10  1  0  0  0  0
 10 11  1  0  0  0  0
 10 12  1  0  0  0  0
 10 13  1  0  0  0  0
 13 14  1  0  0  0  0
 13 15  1  0  0  0  0
 13 16  1  0  0  0  0
 16 17  1  0  0  0  0
 16 18  1  0  0  0  0
 16 19  1  0  0  0  0
 19 20  1  0  0  0  0
 19 21  1  0  0  0  0
 19 22  1  0  0  0  0
  1 23  1  0  0  0  0
 23 24  1  0  0  0  0
 23 25  1  0  0  0  0
 23 26  1  0  0  0  0
M  END
> <VM2 Rank>
223

> <Conf_Id>
275

> <Probability>
0.00

> <Sum Probability>
100.00

> <Delta G>
7.917

> <G>
83.383

> <E>
50.049

> <-TS>
33.334

> <U+W>
28.587

> <U>
78.886

> <W>
-50.298

> <W(PB)>
-52.462

> <W(SA)>
2.164

> <Valence>
8.514

> <Coulomb>
70.280

> <VdW>
0.092

> <VdW6>
-9.823

> <VdW12>
9.914

> <Bond>
0.314

> <Angle>
1.918

> <Pdih>
6.283

> <Idih>
0.000

> <Tether>
0.000

$$$$
VeraChem MOL file


 26 25  0  0  0  0  0  0  0  0999 V2000     
   20.6765   18.6341   24.8262 N   0  3  0  0  0  0  0  0  0  0  0  0
   21.1621   19.1023   24.0478 H   0  0  0  0  0  0  0  0  0  0  0  0
   20.7427   17.6238   24.6293 H   0  0  0  0  0  0  0  0  0  0  0  0
   19.2237   19.0619   24.8567 C   0  0  0  0  0  0  0  0  0  0  0  0
   19.1816   20.1116   25.1575 H   0  0  0  0  0  0  0  0  0  0  0  0
   18.7337   18.4679   25.6323 H   0  0  0  0  0  0  0  0  0  0  0  0
   18.4685   18.8756   23.5234 C   0  0  0  0  0  0  0  0  0  0  0  0
   18.6812   17.8942   23.0855 H   0  0  0  0  0  0  0  0  0  0  0  0
   17.3962   18.8598   23.7591 H   0  0  0  0  0  0  0  0  0  0  0  0
   18.6987   20.0144   22.4958 C   0  0  0  0  0  0  0  0  0  0  0  0
   18.4247   20.9659   22.9723 H   0  0  0  0  0  0  0  0  0  0  0  0
   17.9859   19.8875   21.6693 H   0  0  0  0  0  0  0  0  0  0  0  0
   20.1246   20.1618   21.8979 C   0  0  0  0  0  0  0  0  0  0  0  0
   20.1225   21.0915   21.3118 H   0  0  0  0  0  0  0  0  0  0  0  0
   20.8733   20.3297   22.6806 H   0  0  0  0  0  0  0  0  0  0  0  0
   20.5618   19.0227   20.9395 C   0  0  0  0  0  0  0  0  0  0  0  0
   21.2359   19.4516   20.1847 H   0  0  0  0  0  0  0  0  0  0  0  0
   19.6950   18.6409   20.3823 H   0  0  0  0  0  0  0  0  0  0  0  0
   21.3100   17.8560   21.6238 C   0  0  0  0  0  0  0  0  0  0  0  0
   21.6737   17.1470   20.8686 H   0  0  0  0  0  0  0  0  0  0  0  0
   20.6641   17.2942   22.3052 H   0  0  0  0  0  0  0  0  0  0  0  0
   22.1837   18.2164   22.1816 H   0  0  0  0  0  0  0  0  0  0  0  0
   21.3440   18.9636   26.1537 C   0  0  0  0  0  0  0  0  0  0  0  0
   22.3896   18.6497   26.1172 H   0  0  0  0  0  0  0  0  0  0  0  0
   21.2878   20.0406   26.3264 H   0  0  0  0  0  0  0  0  0  0  0  0
   20.8275   18.4329   26.9565 H   0  0  0  0  0  0  0  0  0  0  0  0
  1  2  1  0  0  0  0
  1  3  1  0  0  0  0
  1  4  1  0  0  0  0
  4  5  1  0  0  0  0
  4  6  1  0  0  0  0
  4  7  1  0  0  0  0
  7  8  1  0  0  0  0
  7  9  1  0  0  0  0
  7 10  1  0  0  0  0
 10 11  1  0  0  0  0
 10 12  1  0  0  0  0
 10 13  1  0  0  0  0
 13 14  1  0  0  0  0
 13 15  1  0  0  0  0
 13 16  1  0  0  0  0
 16 17  1  0  0  0  0
 16 18  1  0  0  0  0
 16 19  1  0  0  0  0
 19 20  1  0  0  0  0
 19 21  1  0  0  0  0
 19 22  1  0  0  0  0
  1 23  1  0  0  0  0
 23 24  1  0  0  0  0
 23 25  1  0  0  0  0
 23 26  1  0  0  0  0
M  END
> <VM2 Rank>
224

> <Conf_Id>
816

> <Probability>
0.00

> <Sum Probability>
100.00

> <Delta G>
8.647

> <G>
84.113

> <E>
51.101

> <-TS>
33.012

> <U+W>
29.639

> <U>
78.058

> <W>
-48.419

> <W(PB)>
-50.583

> <W(SA)>
2.164

> <Valence>
6.916

> <Coulomb>
71.697

> <VdW>
-0.555

> <VdW6>
-9.228

> <VdW12>
8.672

> <Bond>
0.274

> <Angle>
2.757

> <Pdih>
3.885

> <Idih>
0.000

> <Tether>
0.000

$$$$
