@<TRIPOS>MOLECULE
guest-s12_vm2.mol2 : vm2 ligand conformer 1
          26          25           1
SMALL
USER_CHARGES
 
@<TRIPOS>ATOM
       1    N1      19.983747   18.623824   26.486090 N.4        1 MOL1        -0.4857
       2    H1      20.862931   18.085602   26.533339 H          1 MOL1         0.3650
       3    H2      19.230495   17.918580   26.475222 H          1 MOL1         0.3650
       4    C1      19.944334   19.450691   25.216612 C.3        1 MOL1         0.0209
       5    H3      20.759868   20.176751   25.263966 H          1 MOL1         0.0967
       6    H4      18.997666   19.996668   25.201395 H          1 MOL1         0.0967
       7    C2      20.076050   18.606557   23.935932 C.3        1 MOL1        -0.1378
       8    H5      21.020687   18.047092   23.963037 H          1 MOL1         0.0993
       9    H6      19.264390   17.867609   23.900736 H          1 MOL1         0.0993
      10    C3      20.030680   19.490039   22.669502 C.3        1 MOL1        -0.1338
      11    H7      20.840903   20.231420   22.711045 H          1 MOL1         0.0993
      12    H8      19.086660   20.052389   22.649008 H          1 MOL1         0.0993
      13    C4      20.161823   18.652839   21.376722 C.3        1 MOL1        -0.1338
      14    H9      21.105747   18.090584   21.396956 H          1 MOL1         0.0993
      15    H10     19.351708   17.911554   21.334977 H          1 MOL1         0.0993
      16    C5      20.116346   19.536732   20.110281 C.3        1 MOL1        -0.1313
      17    H11     20.926580   20.278515   20.145983 H          1 MOL1         0.0993
      18    H12     19.172700   20.099622   20.084098 H          1 MOL1         0.0993
      19    C6      20.247431   18.697348   18.821428 C.3        1 MOL1        -0.2328
      20    H13     21.198134   18.148710   18.802379 H          1 MOL1         0.1004
      21    H14     20.213047   19.342106   17.933658 H          1 MOL1         0.1004
      22    H15     19.430510   17.968509   18.739963 H          1 MOL1         0.1004
      23    C7      19.847590   19.531971   27.700433 C.3        1 MOL1        -0.0781
      24    H16     18.896098   20.065423   27.645104 H          1 MOL1         0.0978
      25    H17     19.877450   18.924097   28.607487 H          1 MOL1         0.0978
      26    H18     20.673036   20.247192   27.708415 H          1 MOL1         0.0978
@<TRIPOS>BOND
    1     1     2    1
    2     1     3    1
    3     1     4    1
    4     4     5    1
    5     4     6    1
    6     4     7    1
    7     7     8    1
    8     7     9    1
    9     7    10    1
   10    10    11    1
   11    10    12    1
   12    10    13    1
   13    13    14    1
   14    13    15    1
   15    13    16    1
   16    16    17    1
   17    16    18    1
   18    16    19    1
   19    19    20    1
   20    19    21    1
   21    19    22    1
   22     1    23    1
   23    23    24    1
   24    23    25    1
   25    23    26    1
@<TRIPOS>SUBSTRUCTURE
       1 MOL1            1 RESIDUE      1      MOL     
@<SCITEGIC>MOL_PROPERTY
VM2 Rank
SciTegic.value.IntegerValue
1

@<SCITEGIC>MOL_PROPERTY
Conf_Id
SciTegic.value.IntegerValue
1417

@<SCITEGIC>MOL_PROPERTY
Probability
SciTegic.value.DoubleValue
6.83

@<SCITEGIC>MOL_PROPERTY
Sum Probability
SciTegic.value.DoubleValue
6.83

@<SCITEGIC>MOL_PROPERTY
Delta G
SciTegic.value.DoubleValue
0.000

@<SCITEGIC>MOL_PROPERTY
G
SciTegic.value.DoubleValue
75.466

@<SCITEGIC>MOL_PROPERTY
E
SciTegic.value.DoubleValue
43.303

@<SCITEGIC>MOL_PROPERTY
-TS
SciTegic.value.DoubleValue
32.163

@<SCITEGIC>MOL_PROPERTY
U+W
SciTegic.value.DoubleValue
21.841

@<SCITEGIC>MOL_PROPERTY
U
SciTegic.value.DoubleValue
70.357

@<SCITEGIC>MOL_PROPERTY
W
SciTegic.value.DoubleValue
-48.515

@<SCITEGIC>MOL_PROPERTY
W(PB)
SciTegic.value.DoubleValue
-50.856

@<SCITEGIC>MOL_PROPERTY
W(SA)
SciTegic.value.DoubleValue
2.341

@<SCITEGIC>MOL_PROPERTY
Valence
SciTegic.value.DoubleValue
1.714

@<SCITEGIC>MOL_PROPERTY
Coulomb
SciTegic.value.DoubleValue
68.480

@<SCITEGIC>MOL_PROPERTY
VdW
SciTegic.value.DoubleValue
0.163

@<SCITEGIC>MOL_PROPERTY
VdW6
SciTegic.value.DoubleValue
-5.268

@<SCITEGIC>MOL_PROPERTY
VdW12
SciTegic.value.DoubleValue
5.431

@<SCITEGIC>MOL_PROPERTY
Bond
SciTegic.value.DoubleValue
0.126

@<SCITEGIC>MOL_PROPERTY
Angle
SciTegic.value.DoubleValue
0.350

@<SCITEGIC>MOL_PROPERTY
Pdih
SciTegic.value.DoubleValue
1.238

@<SCITEGIC>MOL_PROPERTY
Idih
SciTegic.value.DoubleValue
0.000

@<SCITEGIC>MOL_PROPERTY
Tether
SciTegic.value.DoubleValue
0.000

@<TRIPOS>MOLECULE
guest-s12_vm2.mol2 : vm2 ligand conformer 2
          26          25           1
SMALL
USER_CHARGES
 
@<TRIPOS>ATOM
       1    N1      20.392279   19.003526   26.622255 N.4        1 MOL1        -0.4857
       2    H1      20.862884   19.562726   27.351519 H          1 MOL1         0.3650
       3    H2      20.876166   18.092347   26.632190 H          1 MOL1         0.3650
       4    C1      20.568930   19.677602   25.271840 C.3        1 MOL1         0.0209
       5    H3      21.630310   19.915465   25.164301 H          1 MOL1         0.0967
       6    H4      20.011051   20.617214   25.289084 H          1 MOL1         0.0967
       7    C2      20.122403   18.824483   24.067080 C.3        1 MOL1        -0.1378
       8    H5      20.651495   17.862494   24.086114 H          1 MOL1         0.0993
       9    H6      19.049984   18.603920   24.145458 H          1 MOL1         0.0993
      10    C3      20.403376   19.546217   22.730469 C.3        1 MOL1        -0.1338
      11    H7      21.476816   19.768700   22.652935 H          1 MOL1         0.0993
      12    H8      19.877450   20.511128   22.718119 H          1 MOL1         0.0993
      13    C4      19.961487   18.700934   21.514070 C.3        1 MOL1        -0.1338
      14    H9      20.487149   17.736025   21.526457 H          1 MOL1         0.0993
      15    H10     18.888113   18.478598   21.591278 H          1 MOL1         0.0993
      16    C5      20.242608   19.423076   20.177408 C.3        1 MOL1        -0.1313
      17    H11     21.315720   19.645565   20.094184 H          1 MOL1         0.0993
      18    H12     19.716848   20.388081   20.159068 H          1 MOL1         0.0993
      19    C6      19.800068   18.576079   18.965121 C.3        1 MOL1        -0.2328
      20    H13     20.007662   19.105181   18.025981 H          1 MOL1         0.1004
      21    H14     18.723192   18.365912   19.002141 H          1 MOL1         0.1004
      22    H15     20.334598   17.617603   18.936742 H          1 MOL1         0.1004
      23    C7      18.916849   18.838083   26.968758 C.3        1 MOL1        -0.0781
      24    H16     18.441373   18.191991   26.228124 H          1 MOL1         0.0978
      25    H17     18.831204   18.385600   27.959222 H          1 MOL1         0.0978
      26    H18     18.436178   19.818798   26.968759 H          1 MOL1         0.0978
@<TRIPOS>BOND
    1     1     2    1
    2     1     3    1
    3     1     4    1
    4     4     5    1
    5     4     6    1
    6     4     7    1
    7     7     8    1
    8     7     9    1
    9     7    10    1
   10    10    11    1
   11    10    12    1
   12    10    13    1
   13    13    14    1
   14    13    15    1
   15    13    16    1
   16    16    17    1
   17    16    18    1
   18    16    19    1
   19    19    20    1
   20    19    21    1
   21    19    22    1
   22     1    23    1
   23    23    24    1
   24    23    25    1
   25    23    26    1
@<TRIPOS>SUBSTRUCTURE
       1 MOL1            1 RESIDUE      1      MOL     
@<SCITEGIC>MOL_PROPERTY
VM2 Rank
SciTegic.value.IntegerValue
2

@<SCITEGIC>MOL_PROPERTY
Conf_Id
SciTegic.value.IntegerValue
1434

@<SCITEGIC>MOL_PROPERTY
Probability
SciTegic.value.DoubleValue
4.20

@<SCITEGIC>MOL_PROPERTY
Sum Probability
SciTegic.value.DoubleValue
11.03

@<SCITEGIC>MOL_PROPERTY
Delta G
SciTegic.value.DoubleValue
0.291

@<SCITEGIC>MOL_PROPERTY
G
SciTegic.value.DoubleValue
75.757

@<SCITEGIC>MOL_PROPERTY
E
SciTegic.value.DoubleValue
43.423

@<SCITEGIC>MOL_PROPERTY
-TS
SciTegic.value.DoubleValue
32.334

@<SCITEGIC>MOL_PROPERTY
U+W
SciTegic.value.DoubleValue
21.961

@<SCITEGIC>MOL_PROPERTY
U
SciTegic.value.DoubleValue
70.745

@<SCITEGIC>MOL_PROPERTY
W
SciTegic.value.DoubleValue
-48.784

@<SCITEGIC>MOL_PROPERTY
W(PB)
SciTegic.value.DoubleValue
-51.112

@<SCITEGIC>MOL_PROPERTY
W(SA)
SciTegic.value.DoubleValue
2.328

@<SCITEGIC>MOL_PROPERTY
Valence
SciTegic.value.DoubleValue
1.993

@<SCITEGIC>MOL_PROPERTY
Coulomb
SciTegic.value.DoubleValue
68.323

@<SCITEGIC>MOL_PROPERTY
VdW
SciTegic.value.DoubleValue
0.429

@<SCITEGIC>MOL_PROPERTY
VdW6
SciTegic.value.DoubleValue
-5.973

@<SCITEGIC>MOL_PROPERTY
VdW12
SciTegic.value.DoubleValue
6.403

@<SCITEGIC>MOL_PROPERTY
Bond
SciTegic.value.DoubleValue
0.161

@<SCITEGIC>MOL_PROPERTY
Angle
SciTegic.value.DoubleValue
0.472

@<SCITEGIC>MOL_PROPERTY
Pdih
SciTegic.value.DoubleValue
1.360

@<SCITEGIC>MOL_PROPERTY
Idih
SciTegic.value.DoubleValue
0.000

@<SCITEGIC>MOL_PROPERTY
Tether
SciTegic.value.DoubleValue
0.000

@<TRIPOS>MOLECULE
guest-s12_vm2.mol2 : vm2 ligand conformer 3
          26          25           1
SMALL
USER_CHARGES
 
@<TRIPOS>ATOM
       1    N1      19.498323   18.912506   26.590590 N.4        1 MOL1        -0.4857
       2    H1      19.208335   17.922507   26.573155 H          1 MOL1         0.3650
       3    H2      18.874883   19.360307   27.281094 H          1 MOL1         0.3650
       4    C1      19.284540   19.546772   25.226328 C.3        1 MOL1         0.0209
       5    H3      19.639207   20.579322   25.275842 H          1 MOL1         0.0967
       6    H4      18.207189   19.566817   25.043064 H          1 MOL1         0.0967
       7    C2      19.976896   18.809598   24.061915 C.3        1 MOL1        -0.1378
       8    H5      21.063584   18.808835   24.216775 H          1 MOL1         0.0993
       9    H6      19.652243   17.760694   24.050690 H          1 MOL1         0.0993
      10    C3      19.650724   19.469540   22.703806 C.3        1 MOL1        -0.1338
      11    H7      19.971177   20.520635   22.721471 H          1 MOL1         0.0993
      12    H8      18.562597   19.471917   22.549668 H          1 MOL1         0.0993
      13    C4      20.337861   18.739257   21.527409 C.3        1 MOL1        -0.1338
      14    H9      21.425921   18.737105   21.681182 H          1 MOL1         0.0993
      15    H10     20.017745   17.688191   21.509845 H          1 MOL1         0.0993
      16    C5      20.011370   19.399488   20.169223 C.3        1 MOL1        -0.1313
      17    H11     20.331828   20.450757   20.180903 H          1 MOL1         0.0993
      18    H12     18.923966   19.401736   20.009400 H          1 MOL1         0.0993
      19    C6      20.699398   18.667756   18.997018 C.3        1 MOL1        -0.2328
      20    H13     21.791237   18.678767   19.110895 H          1 MOL1         0.1004
      21    H14     20.455705   19.150808   18.041873 H          1 MOL1         0.1004
      22    H15     20.372419   17.621419   18.938146 H          1 MOL1         0.1004
      23    C7      20.948889   19.045082   27.040711 C.3        1 MOL1        -0.0781
      24    H16     21.221037   20.102471   27.067364 H          1 MOL1         0.0978
      25    H17     21.054328   18.612078   28.037948 H          1 MOL1         0.0978
      26    H18     21.595390   18.513250   26.339823 H          1 MOL1         0.0978
@<TRIPOS>BOND
    1     1     2    1
    2     1     3    1
    3     1     4    1
    4     4     5    1
    5     4     6    1
    6     4     7    1
    7     7     8    1
    8     7     9    1
    9     7    10    1
   10    10    11    1
   11    10    12    1
   12    10    13    1
   13    13    14    1
   14    13    15    1
   15    13    16    1
   16    16    17    1
   17    16    18    1
   18    16    19    1
   19    19    20    1
   20    19    21    1
   21    19    22    1
   22     1    23    1
   23    23    24    1
   24    23    25    1
   25    23    26    1
@<TRIPOS>SUBSTRUCTURE
       1 MOL1            1 RESIDUE      1      MOL     
@<SCITEGIC>MOL_PROPERTY
VM2 Rank
SciTegic.value.IntegerValue
3

@<SCITEGIC>MOL_PROPERTY
Conf_Id
SciTegic.value.IntegerValue
37

@<SCITEGIC>MOL_PROPERTY
Probability
SciTegic.value.DoubleValue
4.16

@<SCITEGIC>MOL_PROPERTY
Sum Probability
SciTegic.value.DoubleValue
15.18

@<SCITEGIC>MOL_PROPERTY
Delta G
SciTegic.value.DoubleValue
0.296

@<SCITEGIC>MOL_PROPERTY
G
SciTegic.value.DoubleValue
75.762

@<SCITEGIC>MOL_PROPERTY
E
SciTegic.value.DoubleValue
43.429

@<SCITEGIC>MOL_PROPERTY
-TS
SciTegic.value.DoubleValue
32.333

@<SCITEGIC>MOL_PROPERTY
U+W
SciTegic.value.DoubleValue
21.967

@<SCITEGIC>MOL_PROPERTY
U
SciTegic.value.DoubleValue
70.745

@<SCITEGIC>MOL_PROPERTY
W
SciTegic.value.DoubleValue
-48.778

@<SCITEGIC>MOL_PROPERTY
W(PB)
SciTegic.value.DoubleValue
-51.115

@<SCITEGIC>MOL_PROPERTY
W(SA)
SciTegic.value.DoubleValue
2.337

@<SCITEGIC>MOL_PROPERTY
Valence
SciTegic.value.DoubleValue
1.993

@<SCITEGIC>MOL_PROPERTY
Coulomb
SciTegic.value.DoubleValue
68.323

@<SCITEGIC>MOL_PROPERTY
VdW
SciTegic.value.DoubleValue
0.429

@<SCITEGIC>MOL_PROPERTY
VdW6
SciTegic.value.DoubleValue
-5.973

@<SCITEGIC>MOL_PROPERTY
VdW12
SciTegic.value.DoubleValue
6.403

@<SCITEGIC>MOL_PROPERTY
Bond
SciTegic.value.DoubleValue
0.161

@<SCITEGIC>MOL_PROPERTY
Angle
SciTegic.value.DoubleValue
0.472

@<SCITEGIC>MOL_PROPERTY
Pdih
SciTegic.value.DoubleValue
1.360

@<SCITEGIC>MOL_PROPERTY
Idih
SciTegic.value.DoubleValue
0.000

@<SCITEGIC>MOL_PROPERTY
Tether
SciTegic.value.DoubleValue
0.000

@<TRIPOS>MOLECULE
guest-s12_vm2.mol2 : vm2 ligand conformer 4
          26          25           1
SMALL
USER_CHARGES
 
@<TRIPOS>ATOM
       1    N1      20.555903   19.293670   25.947416 N.4        1 MOL1        -0.4857
       2    H1      20.960723   20.023470   25.341879 H          1 MOL1         0.3650
       3    H2      21.264976   18.545287   25.990518 H          1 MOL1         0.3650
       4    C1      19.273228   18.762512   25.337037 C.3        1 MOL1         0.0209
       5    H3      18.552488   19.583206   25.299054 H          1 MOL1         0.0967
       6    H4      18.881434   17.995286   26.009709 H          1 MOL1         0.0967
       7    C2      19.451850   18.163421   23.928038 C.3        1 MOL1        -0.1378
       8    H5      20.181682   17.343826   23.967779 H          1 MOL1         0.0993
       9    H6      18.497527   17.717631   23.617427 H          1 MOL1         0.0993
      10    C3      19.890485   19.215426   22.881624 C.3        1 MOL1        -0.1338
      11    H7      20.862901   19.640800   23.163453 H          1 MOL1         0.0993
      12    H8      19.169901   20.045177   22.872955 H          1 MOL1         0.0993
      13    C4      19.993440   18.607254   21.464320 C.3        1 MOL1        -0.1338
      14    H9      20.711443   17.775423   21.472616 H          1 MOL1         0.0993
      15    H10     19.021574   18.184669   21.173769 H          1 MOL1         0.0993
      16    C5      20.432094   19.655474   20.417376 C.3        1 MOL1        -0.1313
      17    H11     21.405555   20.079313   20.701466 H          1 MOL1         0.0993
      18    H12     19.715691   20.488888   20.403780 H          1 MOL1         0.0993
      19    C6      20.533193   19.044485   19.003395 C.3        1 MOL1        -0.2328
      20    H13     21.268275   18.229528   18.976929 H          1 MOL1         0.1004
      21    H14     20.845707   19.803474   18.274494 H          1 MOL1         0.1004
      22    H15     19.565274   18.642457   18.676732 H          1 MOL1         0.1004
      23    C7      20.277805   19.847757   27.337794 C.3        1 MOL1        -0.0781
      24    H16     21.208764   20.226853   27.765260 H          1 MOL1         0.0978
      25    H17     19.549521   20.658224   27.262368 H          1 MOL1         0.0978
      26    H18     19.879950   19.050231   27.969144 H          1 MOL1         0.0978
@<TRIPOS>BOND
    1     1     2    1
    2     1     3    1
    3     1     4    1
    4     4     5    1
    5     4     6    1
    6     4     7    1
    7     7     8    1
    8     7     9    1
    9     7    10    1
   10    10    11    1
   11    10    12    1
   12    10    13    1
   13    13    14    1
   14    13    15    1
   15    13    16    1
   16    16    17    1
   17    16    18    1
   18    16    19    1
   19    19    20    1
   20    19    21    1
   21    19    22    1
   22     1    23    1
   23    23    24    1
   24    23    25    1
   25    23    26    1
@<TRIPOS>SUBSTRUCTURE
       1 MOL1            1 RESIDUE      1      MOL     
@<SCITEGIC>MOL_PROPERTY
VM2 Rank
SciTegic.value.IntegerValue
4

@<SCITEGIC>MOL_PROPERTY
Conf_Id
SciTegic.value.IntegerValue
1029

@<SCITEGIC>MOL_PROPERTY
Probability
SciTegic.value.DoubleValue
3.08

@<SCITEGIC>MOL_PROPERTY
Sum Probability
SciTegic.value.DoubleValue
18.26

@<SCITEGIC>MOL_PROPERTY
Delta G
SciTegic.value.DoubleValue
0.475

@<SCITEGIC>MOL_PROPERTY
G
SciTegic.value.DoubleValue
75.941

@<SCITEGIC>MOL_PROPERTY
E
SciTegic.value.DoubleValue
43.686

@<SCITEGIC>MOL_PROPERTY
-TS
SciTegic.value.DoubleValue
32.255

@<SCITEGIC>MOL_PROPERTY
U+W
SciTegic.value.DoubleValue
22.224

@<SCITEGIC>MOL_PROPERTY
U
SciTegic.value.DoubleValue
71.143

@<SCITEGIC>MOL_PROPERTY
W
SciTegic.value.DoubleValue
-48.918

@<SCITEGIC>MOL_PROPERTY
W(PB)
SciTegic.value.DoubleValue
-51.256

@<SCITEGIC>MOL_PROPERTY
W(SA)
SciTegic.value.DoubleValue
2.337

@<SCITEGIC>MOL_PROPERTY
Valence
SciTegic.value.DoubleValue
1.835

@<SCITEGIC>MOL_PROPERTY
Coulomb
SciTegic.value.DoubleValue
69.102

@<SCITEGIC>MOL_PROPERTY
VdW
SciTegic.value.DoubleValue
0.206

@<SCITEGIC>MOL_PROPERTY
VdW6
SciTegic.value.DoubleValue
-5.849

@<SCITEGIC>MOL_PROPERTY
VdW12
SciTegic.value.DoubleValue
6.055

@<SCITEGIC>MOL_PROPERTY
Bond
SciTegic.value.DoubleValue
0.142

@<SCITEGIC>MOL_PROPERTY
Angle
SciTegic.value.DoubleValue
0.413

@<SCITEGIC>MOL_PROPERTY
Pdih
SciTegic.value.DoubleValue
1.279

@<SCITEGIC>MOL_PROPERTY
Idih
SciTegic.value.DoubleValue
0.000

@<SCITEGIC>MOL_PROPERTY
Tether
SciTegic.value.DoubleValue
0.000

@<TRIPOS>MOLECULE
guest-s12_vm2.mol2 : vm2 ligand conformer 5
          26          25           1
SMALL
USER_CHARGES
 
@<TRIPOS>ATOM
       1    N1      19.327236   19.167690   25.903952 N.4        1 MOL1        -0.4857
       2    H1      18.783364   18.290810   25.902650 H          1 MOL1         0.3650
       3    H2      18.826243   19.804637   25.266401 H          1 MOL1         0.3650
       4    C1      20.730449   18.912026   25.388619 C.3        1 MOL1         0.0209
       5    H3      21.221635   18.235390   26.092556 H          1 MOL1         0.0967
       6    H4      21.270666   19.862063   25.395239 H          1 MOL1         0.0967
       7    C2      20.776024   18.299251   23.974926 C.3        1 MOL1        -0.1378
       8    H5      21.820253   18.058429   23.735065 H          1 MOL1         0.0993
       9    H6      20.226560   17.348447   23.969412 H          1 MOL1         0.0993
      10    C3      20.207534   19.247933   22.892834 C.3        1 MOL1        -0.1338
      11    H7      20.743713   20.206595   22.928651 H          1 MOL1         0.0993
      12    H8      19.151778   19.465272   23.102846 H          1 MOL1         0.0993
      13    C4      20.329495   18.641699   21.476206 C.3        1 MOL1        -0.1338
      14    H9      21.384753   18.426990   21.257460 H          1 MOL1         0.0993
      15    H10     19.796240   17.681553   21.440181 H          1 MOL1         0.0993
      16    C5      19.761880   19.586723   20.393608 C.3        1 MOL1        -0.1313
      17    H11     20.293578   20.548156   20.424268 H          1 MOL1         0.0993
      18    H12     18.705239   19.802329   20.605736 H          1 MOL1         0.0993
      19    C6      19.886111   18.978120   18.980442 C.3        1 MOL1        -0.2328
      20    H13     20.935903   18.783044   18.725322 H          1 MOL1         0.1004
      21    H14     19.478080   19.663210   18.225997 H          1 MOL1         0.1004
      22    H15     19.335229   18.031264   18.908375 H          1 MOL1         0.1004
      23    C7      19.389271   19.756558   27.306412 C.3        1 MOL1        -0.0781
      24    H16     19.941650   20.698323   27.276393 H          1 MOL1         0.0978
      25    H17     18.373218   19.936018   27.664959 H          1 MOL1         0.0978
      26    H18     19.895317   19.051654   27.969712 H          1 MOL1         0.0978
@<TRIPOS>BOND
    1     1     2    1
    2     1     3    1
    3     1     4    1
    4     4     5    1
    5     4     6    1
    6     4     7    1
    7     7     8    1
    8     7     9    1
    9     7    10    1
   10    10    11    1
   11    10    12    1
   12    10    13    1
   13    13    14    1
   14    13    15    1
   15    13    16    1
   16    16    17    1
   17    16    18    1
   18    16    19    1
   19    19    20    1
   20    19    21    1
   21    19    22    1
   22     1    23    1
   23    23    24    1
   24    23    25    1
   25    23    26    1
@<TRIPOS>SUBSTRUCTURE
       1 MOL1            1 RESIDUE      1      MOL     
@<SCITEGIC>MOL_PROPERTY
VM2 Rank
SciTegic.value.IntegerValue
5

@<SCITEGIC>MOL_PROPERTY
Conf_Id
SciTegic.value.IntegerValue
1541

@<SCITEGIC>MOL_PROPERTY
Probability
SciTegic.value.DoubleValue
3.07

@<SCITEGIC>MOL_PROPERTY
Sum Probability
SciTegic.value.DoubleValue
21.34

@<SCITEGIC>MOL_PROPERTY
Delta G
SciTegic.value.DoubleValue
0.476

@<SCITEGIC>MOL_PROPERTY
G
SciTegic.value.DoubleValue
75.942

@<SCITEGIC>MOL_PROPERTY
E
SciTegic.value.DoubleValue
43.687

@<SCITEGIC>MOL_PROPERTY
-TS
SciTegic.value.DoubleValue
32.255

@<SCITEGIC>MOL_PROPERTY
U+W
SciTegic.value.DoubleValue
22.225

@<SCITEGIC>MOL_PROPERTY
U
SciTegic.value.DoubleValue
71.142

@<SCITEGIC>MOL_PROPERTY
W
SciTegic.value.DoubleValue
-48.917

@<SCITEGIC>MOL_PROPERTY
W(PB)
SciTegic.value.DoubleValue
-51.254

@<SCITEGIC>MOL_PROPERTY
W(SA)
SciTegic.value.DoubleValue
2.337

@<SCITEGIC>MOL_PROPERTY
Valence
SciTegic.value.DoubleValue
1.835

@<SCITEGIC>MOL_PROPERTY
Coulomb
SciTegic.value.DoubleValue
69.101

@<SCITEGIC>MOL_PROPERTY
VdW
SciTegic.value.DoubleValue
0.206

@<SCITEGIC>MOL_PROPERTY
VdW6
SciTegic.value.DoubleValue
-5.849

@<SCITEGIC>MOL_PROPERTY
VdW12
SciTegic.value.DoubleValue
6.055

@<SCITEGIC>MOL_PROPERTY
Bond
SciTegic.value.DoubleValue
0.142

@<SCITEGIC>MOL_PROPERTY
Angle
SciTegic.value.DoubleValue
0.413

@<SCITEGIC>MOL_PROPERTY
Pdih
SciTegic.value.DoubleValue
1.279

@<SCITEGIC>MOL_PROPERTY
Idih
SciTegic.value.DoubleValue
0.000

@<SCITEGIC>MOL_PROPERTY
Tether
SciTegic.value.DoubleValue
0.000

@<TRIPOS>MOLECULE
guest-s12_vm2.mol2 : vm2 ligand conformer 6
          26          25           1
SMALL
USER_CHARGES
 
@<TRIPOS>ATOM
       1    N1      19.928141   18.806346   26.289549 N.4        1 MOL1        -0.4857
       2    H1      20.799361   19.041798   26.789928 H          1 MOL1         0.3650
       3    H2      19.867102   17.776558   26.314490 H          1 MOL1         0.3650
       4    C1      20.001133   19.291398   24.855732 C.3        1 MOL1         0.0209
       5    H3      20.075338   20.381623   24.873852 H          1 MOL1         0.0967
       6    H4      19.064752   19.017559   24.363943 H          1 MOL1         0.0967
       7    C2      21.192092   18.703925   24.074206 C.3        1 MOL1        -0.1378
       8    H5      22.123458   18.948649   24.602027 H          1 MOL1         0.0993
       9    H6      21.118605   17.608344   24.057637 H          1 MOL1         0.0993
      10    C3      21.279868   19.240972   22.626064 C.3        1 MOL1        -0.1338
      11    H7      22.197300   18.853385   22.161759 H          1 MOL1         0.0993
      12    H8      21.380967   20.335064   22.646604 H          1 MOL1         0.0993
      13    C4      20.062630   18.845114   21.755708 C.3        1 MOL1        -0.1338
      14    H9      19.944500   17.752682   21.764549 H          1 MOL1         0.0993
      15    H10     19.142879   19.268039   22.181469 H          1 MOL1         0.0993
      16    C5      20.216264   19.333313   20.297891 C.3        1 MOL1        -0.1313
      17    H11     21.129903   18.909074   19.858265 H          1 MOL1         0.0993
      18    H12     20.335549   20.425813   20.283074 H          1 MOL1         0.0993
      19    C6      19.001132   18.939283   19.431209 C.3        1 MOL1        -0.2328
      20    H13     18.875900   17.849108   19.398999 H          1 MOL1         0.1004
      21    H14     19.128951   19.293993   18.400254 H          1 MOL1         0.1004
      22    H15     18.075468   19.378175   19.825817 H          1 MOL1         0.1004
      23    C7      18.726741   19.429650   26.986641 C.3        1 MOL1        -0.0781
      24    H16     17.815188   19.139602   26.459480 H          1 MOL1         0.0978
      25    H17     18.685921   19.072316   28.018043 H          1 MOL1         0.0978
      26    H18     18.830031   20.516938   26.976836 H          1 MOL1         0.0978
@<TRIPOS>BOND
    1     1     2    1
    2     1     3    1
    3     1     4    1
    4     4     5    1
    5     4     6    1
    6     4     7    1
    7     7     8    1
    8     7     9    1
    9     7    10    1
   10    10    11    1
   11    10    12    1
   12    10    13    1
   13    13    14    1
   14    13    15    1
   15    13    16    1
   16    16    17    1
   17    16    18    1
   18    16    19    1
   19    19    20    1
   20    19    21    1
   21    19    22    1
   22     1    23    1
   23    23    24    1
   24    23    25    1
   25    23    26    1
@<TRIPOS>SUBSTRUCTURE
       1 MOL1            1 RESIDUE      1      MOL     
@<SCITEGIC>MOL_PROPERTY
VM2 Rank
SciTegic.value.IntegerValue
6

@<SCITEGIC>MOL_PROPERTY
Conf_Id
SciTegic.value.IntegerValue
1039

@<SCITEGIC>MOL_PROPERTY
Probability
SciTegic.value.DoubleValue
2.67

@<SCITEGIC>MOL_PROPERTY
Sum Probability
SciTegic.value.DoubleValue
24.01

@<SCITEGIC>MOL_PROPERTY
Delta G
SciTegic.value.DoubleValue
0.560

@<SCITEGIC>MOL_PROPERTY
G
SciTegic.value.DoubleValue
76.026

@<SCITEGIC>MOL_PROPERTY
E
SciTegic.value.DoubleValue
43.766

@<SCITEGIC>MOL_PROPERTY
-TS
SciTegic.value.DoubleValue
32.260

@<SCITEGIC>MOL_PROPERTY
U+W
SciTegic.value.DoubleValue
22.304

@<SCITEGIC>MOL_PROPERTY
U
SciTegic.value.DoubleValue
71.138

@<SCITEGIC>MOL_PROPERTY
W
SciTegic.value.DoubleValue
-48.833

@<SCITEGIC>MOL_PROPERTY
W(PB)
SciTegic.value.DoubleValue
-51.178

@<SCITEGIC>MOL_PROPERTY
W(SA)
SciTegic.value.DoubleValue
2.344

@<SCITEGIC>MOL_PROPERTY
Valence
SciTegic.value.DoubleValue
2.016

@<SCITEGIC>MOL_PROPERTY
Coulomb
SciTegic.value.DoubleValue
68.932

@<SCITEGIC>MOL_PROPERTY
VdW
SciTegic.value.DoubleValue
0.190

@<SCITEGIC>MOL_PROPERTY
VdW6
SciTegic.value.DoubleValue
-5.902

@<SCITEGIC>MOL_PROPERTY
VdW12
SciTegic.value.DoubleValue
6.092

@<SCITEGIC>MOL_PROPERTY
Bond
SciTegic.value.DoubleValue
0.149

@<SCITEGIC>MOL_PROPERTY
Angle
SciTegic.value.DoubleValue
0.477

@<SCITEGIC>MOL_PROPERTY
Pdih
SciTegic.value.DoubleValue
1.390

@<SCITEGIC>MOL_PROPERTY
Idih
SciTegic.value.DoubleValue
0.000

@<SCITEGIC>MOL_PROPERTY
Tether
SciTegic.value.DoubleValue
0.000

@<TRIPOS>MOLECULE
guest-s12_vm2.mol2 : vm2 ligand conformer 7
          26          25           1
SMALL
USER_CHARGES
 
@<TRIPOS>ATOM
       1    N1      20.015060   18.815297   26.292682 N.4        1 MOL1        -0.4857
       2    H1      20.281484   17.819061   26.329315 H          1 MOL1         0.3650
       3    H2      19.081322   18.865868   26.729050 H          1 MOL1         0.3650
       4    C1      19.946038   19.285688   24.853793 C.3        1 MOL1         0.0209
       5    H3      20.950591   19.210672   24.430827 H          1 MOL1         0.0967
       6    H4      19.651488   20.338133   24.858763 H          1 MOL1         0.0967
       7    C2      18.956499   18.474770   23.995009 C.3        1 MOL1        -0.1378
       8    H5      19.251392   17.416943   23.991435 H          1 MOL1         0.0993
       9    H6      17.960249   18.521917   24.454562 H          1 MOL1         0.0993
      10    C3      18.863347   18.993369   22.540495 C.3        1 MOL1        -0.1338
      11    H7      18.541677   20.044167   22.546144 H          1 MOL1         0.0993
      12    H8      18.078145   18.431459   22.015899 H          1 MOL1         0.0993
      13    C4      20.193359   18.858417   21.760274 C.3        1 MOL1        -0.1338
      14    H9      20.976389   19.455612   22.246385 H          1 MOL1         0.0993
      15    H10     20.529232   17.812464   21.785040 H          1 MOL1         0.0993
      16    C5      20.046471   19.316052   20.291885 C.3        1 MOL1        -0.1313
      17    H11     19.709915   20.361894   20.261082 H          1 MOL1         0.0993
      18    H12     19.270614   18.718940   19.792394 H          1 MOL1         0.0993
      19    C6      21.373779   19.182378   19.515143 C.3        1 MOL1        -0.2328
      20    H13     21.718933   18.140350   19.499396 H          1 MOL1         0.1004
      21    H14     22.161579   19.796564   19.970488 H          1 MOL1         0.1004
      22    H15     21.249269   19.511442   18.475316 H          1 MOL1         0.1004
      23    C7      21.013447   19.664030   27.067718 C.3        1 MOL1        -0.0781
      24    H16     21.999512   19.568371   26.607849 H          1 MOL1         0.0978
      25    H17     20.693038   20.707908   27.042823 H          1 MOL1         0.0978
      26    H18     21.053394   19.315036   28.102007 H          1 MOL1         0.0978
@<TRIPOS>BOND
    1     1     2    1
    2     1     3    1
    3     1     4    1
    4     4     5    1
    5     4     6    1
    6     4     7    1
    7     7     8    1
    8     7     9    1
    9     7    10    1
   10    10    11    1
   11    10    12    1
   12    10    13    1
   13    13    14    1
   14    13    15    1
   15    13    16    1
   16    16    17    1
   17    16    18    1
   18    16    19    1
   19    19    20    1
   20    19    21    1
   21    19    22    1
   22     1    23    1
   23    23    24    1
   24    23    25    1
   25    23    26    1
@<TRIPOS>SUBSTRUCTURE
       1 MOL1            1 RESIDUE      1      MOL     
@<SCITEGIC>MOL_PROPERTY
VM2 Rank
SciTegic.value.IntegerValue
7

@<SCITEGIC>MOL_PROPERTY
Conf_Id
SciTegic.value.IntegerValue
1805

@<SCITEGIC>MOL_PROPERTY
Probability
SciTegic.value.DoubleValue
2.54

@<SCITEGIC>MOL_PROPERTY
Sum Probability
SciTegic.value.DoubleValue
26.55

@<SCITEGIC>MOL_PROPERTY
Delta G
SciTegic.value.DoubleValue
0.591

@<SCITEGIC>MOL_PROPERTY
G
SciTegic.value.DoubleValue
76.057

@<SCITEGIC>MOL_PROPERTY
E
SciTegic.value.DoubleValue
43.796

@<SCITEGIC>MOL_PROPERTY
-TS
SciTegic.value.DoubleValue
32.260

@<SCITEGIC>MOL_PROPERTY
U+W
SciTegic.value.DoubleValue
22.335

@<SCITEGIC>MOL_PROPERTY
U
SciTegic.value.DoubleValue
71.138

@<SCITEGIC>MOL_PROPERTY
W
SciTegic.value.DoubleValue
-48.803

@<SCITEGIC>MOL_PROPERTY
W(PB)
SciTegic.value.DoubleValue
-51.140

@<SCITEGIC>MOL_PROPERTY
W(SA)
SciTegic.value.DoubleValue
2.337

@<SCITEGIC>MOL_PROPERTY
Valence
SciTegic.value.DoubleValue
2.016

@<SCITEGIC>MOL_PROPERTY
Coulomb
SciTegic.value.DoubleValue
68.932

@<SCITEGIC>MOL_PROPERTY
VdW
SciTegic.value.DoubleValue
0.190

@<SCITEGIC>MOL_PROPERTY
VdW6
SciTegic.value.DoubleValue
-5.902

@<SCITEGIC>MOL_PROPERTY
VdW12
SciTegic.value.DoubleValue
6.092

@<SCITEGIC>MOL_PROPERTY
Bond
SciTegic.value.DoubleValue
0.149

@<SCITEGIC>MOL_PROPERTY
Angle
SciTegic.value.DoubleValue
0.477

@<SCITEGIC>MOL_PROPERTY
Pdih
SciTegic.value.DoubleValue
1.390

@<SCITEGIC>MOL_PROPERTY
Idih
SciTegic.value.DoubleValue
0.000

@<SCITEGIC>MOL_PROPERTY
Tether
SciTegic.value.DoubleValue
0.000

@<TRIPOS>MOLECULE
guest-s12_vm2.mol2 : vm2 ligand conformer 8
          26          25           1
SMALL
USER_CHARGES
 
@<TRIPOS>ATOM
       1    N1      19.589820   19.765858   26.020333 N.4        1 MOL1        -0.4857
       2    H1      18.969883   19.995838   26.813226 H          1 MOL1         0.3650
       3    H2      19.448422   20.527757   25.340446 H          1 MOL1         0.3650
       4    C1      19.166879   18.437440   25.412514 C.3        1 MOL1         0.0209
       5    H3      18.090693   18.490605   25.229160 H          1 MOL1         0.0967
       6    H4      19.341868   17.660843   26.161366 H          1 MOL1         0.0967
       7    C2      19.881395   18.056399   24.097336 C.3        1 MOL1        -0.1378
       8    H5      20.957956   17.941583   24.278176 H          1 MOL1         0.0993
       9    H6      19.515293   17.071311   23.779105 H          1 MOL1         0.0993
      10    C3      19.640868   19.082783   22.964934 C.3        1 MOL1        -0.1338
      11    H7      20.042380   20.061894   23.258621 H          1 MOL1         0.0993
      12    H8      18.560466   19.212865   22.811772 H          1 MOL1         0.0993
      13    C4      20.300665   18.640340   21.639044 C.3        1 MOL1        -0.1338
      14    H9      21.380526   18.506910   21.792724 H          1 MOL1         0.0993
      15    H10     19.899881   17.662822   21.336852 H          1 MOL1         0.0993
      16    C5      20.064546   19.665301   20.507275 C.3        1 MOL1        -0.1313
      17    H11     20.466411   20.644511   20.803288 H          1 MOL1         0.0993
      18    H12     18.985486   19.800771   20.348321 H          1 MOL1         0.0993
      19    C6      20.724685   19.219909   19.184888 C.3        1 MOL1        -0.2328
      20    H13     20.317961   18.258679   18.844573 H          1 MOL1         0.1004
      21    H14     21.810444   19.108942   19.303255 H          1 MOL1         0.1004
      22    H15     20.546187   19.959893   18.393950 H          1 MOL1         0.1004
      23    C7      21.039144   19.721970   26.490676 C.3        1 MOL1        -0.0781
      24    H16     21.154922   18.918541   27.221351 H          1 MOL1         0.0978
      25    H17     21.691400   19.541156   25.633913 H          1 MOL1         0.0978
      26    H18     21.294549   20.678926   26.951162 H          1 MOL1         0.0978
@<TRIPOS>BOND
    1     1     2    1
    2     1     3    1
    3     1     4    1
    4     4     5    1
    5     4     6    1
    6     4     7    1
    7     7     8    1
    8     7     9    1
    9     7    10    1
   10    10    11    1
   11    10    12    1
   12    10    13    1
   13    13    14    1
   14    13    15    1
   15    13    16    1
   16    16    17    1
   17    16    18    1
   18    16    19    1
   19    19    20    1
   20    19    21    1
   21    19    22    1
   22     1    23    1
   23    23    24    1
   24    23    25    1
   25    23    26    1
@<TRIPOS>SUBSTRUCTURE
       1 MOL1            1 RESIDUE      1      MOL     
@<SCITEGIC>MOL_PROPERTY
VM2 Rank
SciTegic.value.IntegerValue
8

@<SCITEGIC>MOL_PROPERTY
Conf_Id
SciTegic.value.IntegerValue
1800

@<SCITEGIC>MOL_PROPERTY
Probability
SciTegic.value.DoubleValue
2.52

@<SCITEGIC>MOL_PROPERTY
Sum Probability
SciTegic.value.DoubleValue
29.07

@<SCITEGIC>MOL_PROPERTY
Delta G
SciTegic.value.DoubleValue
0.594

@<SCITEGIC>MOL_PROPERTY
G
SciTegic.value.DoubleValue
76.060

@<SCITEGIC>MOL_PROPERTY
E
SciTegic.value.DoubleValue
43.581

@<SCITEGIC>MOL_PROPERTY
-TS
SciTegic.value.DoubleValue
32.479

@<SCITEGIC>MOL_PROPERTY
U+W
SciTegic.value.DoubleValue
22.119

@<SCITEGIC>MOL_PROPERTY
U
SciTegic.value.DoubleValue
71.480

@<SCITEGIC>MOL_PROPERTY
W
SciTegic.value.DoubleValue
-49.360

@<SCITEGIC>MOL_PROPERTY
W(PB)
SciTegic.value.DoubleValue
-51.654

@<SCITEGIC>MOL_PROPERTY
W(SA)
SciTegic.value.DoubleValue
2.294

@<SCITEGIC>MOL_PROPERTY
Valence
SciTegic.value.DoubleValue
2.085

@<SCITEGIC>MOL_PROPERTY
Coulomb
SciTegic.value.DoubleValue
68.999

@<SCITEGIC>MOL_PROPERTY
VdW
SciTegic.value.DoubleValue
0.396

@<SCITEGIC>MOL_PROPERTY
VdW6
SciTegic.value.DoubleValue
-6.753

@<SCITEGIC>MOL_PROPERTY
VdW12
SciTegic.value.DoubleValue
7.148

@<SCITEGIC>MOL_PROPERTY
Bond
SciTegic.value.DoubleValue
0.184

@<SCITEGIC>MOL_PROPERTY
Angle
SciTegic.value.DoubleValue
0.576

@<SCITEGIC>MOL_PROPERTY
Pdih
SciTegic.value.DoubleValue
1.325

@<SCITEGIC>MOL_PROPERTY
Idih
SciTegic.value.DoubleValue
0.000

@<SCITEGIC>MOL_PROPERTY
Tether
SciTegic.value.DoubleValue
0.000

@<TRIPOS>MOLECULE
guest-s12_vm2.mol2 : vm2 ligand conformer 9
          26          25           1
SMALL
USER_CHARGES
 
@<TRIPOS>ATOM
       1    N1      20.169443   19.825570   26.040854 N.4        1 MOL1        -0.4857
       2    H1      20.199826   20.605151   25.367015 H          1 MOL1         0.3650
       3    H2      20.672663   20.171283   26.873405 H          1 MOL1         0.3650
       4    C1      20.895409   18.615508   25.473641 C.3        1 MOL1         0.0209
       5    H3      20.830305   17.814169   26.213994 H          1 MOL1         0.0967
       6    H4      21.948356   18.887987   25.365571 H          1 MOL1         0.0967
       7    C2      20.367131   18.106483   24.114514 C.3        1 MOL1        -0.1378
       8    H5      20.947418   17.218858   23.829755 H          1 MOL1         0.0993
       9    H6      19.326527   17.773636   24.220474 H          1 MOL1         0.0993
      10    C3      20.472266   19.168468   22.994342 C.3        1 MOL1        -0.1338
      11    H7      21.511562   19.516905   22.916220 H          1 MOL1         0.0993
      12    H8      19.860258   20.043175   23.252141 H          1 MOL1         0.0993
      13    C4      20.010823   18.610512   21.628759 C.3        1 MOL1        -0.1338
      14    H9      20.622355   17.737243   21.362449 H          1 MOL1         0.0993
      15    H10     18.972679   18.258954   21.707422 H          1 MOL1         0.0993
      16    C5      20.112021   19.670177   20.508905 C.3        1 MOL1        -0.1313
      17    H11     21.149331   20.023627   20.424949 H          1 MOL1         0.0993
      18    H12     19.499492   20.544918   20.768924 H          1 MOL1         0.0993
      19    C6      19.650698   19.109208   19.146793 C.3        1 MOL1        -0.2328
      20    H13     19.729828   19.875669   18.364938 H          1 MOL1         0.1004
      21    H14     18.604687   18.778712   19.189589 H          1 MOL1         0.1004
      22    H15     20.267393   18.253351   18.842825 H          1 MOL1         0.1004
      23    C7      18.730211   19.484074   26.409192 C.3        1 MOL1        -0.0781
      24    H16     18.729765   18.668650   27.135739 H          1 MOL1         0.0978
      25    H17     18.253780   20.365619   26.843860 H          1 MOL1         0.0978
      26    H18     18.189866   19.180412   25.510308 H          1 MOL1         0.0978
@<TRIPOS>BOND
    1     1     2    1
    2     1     3    1
    3     1     4    1
    4     4     5    1
    5     4     6    1
    6     4     7    1
    7     7     8    1
    8     7     9    1
    9     7    10    1
   10    10    11    1
   11    10    12    1
   12    10    13    1
   13    13    14    1
   14    13    15    1
   15    13    16    1
   16    16    17    1
   17    16    18    1
   18    16    19    1
   19    19    20    1
   20    19    21    1
   21    19    22    1
   22     1    23    1
   23    23    24    1
   24    23    25    1
   25    23    26    1
@<TRIPOS>SUBSTRUCTURE
       1 MOL1            1 RESIDUE      1      MOL     
@<SCITEGIC>MOL_PROPERTY
VM2 Rank
SciTegic.value.IntegerValue
9

@<SCITEGIC>MOL_PROPERTY
Conf_Id
SciTegic.value.IntegerValue
1021

@<SCITEGIC>MOL_PROPERTY
Probability
SciTegic.value.DoubleValue
2.37

@<SCITEGIC>MOL_PROPERTY
Sum Probability
SciTegic.value.DoubleValue
31.43

@<SCITEGIC>MOL_PROPERTY
Delta G
SciTegic.value.DoubleValue
0.632

@<SCITEGIC>MOL_PROPERTY
G
SciTegic.value.DoubleValue
76.098

@<SCITEGIC>MOL_PROPERTY
E
SciTegic.value.DoubleValue
43.619

@<SCITEGIC>MOL_PROPERTY
-TS
SciTegic.value.DoubleValue
32.479

@<SCITEGIC>MOL_PROPERTY
U+W
SciTegic.value.DoubleValue
22.157

@<SCITEGIC>MOL_PROPERTY
U
SciTegic.value.DoubleValue
71.479

@<SCITEGIC>MOL_PROPERTY
W
SciTegic.value.DoubleValue
-49.323

@<SCITEGIC>MOL_PROPERTY
W(PB)
SciTegic.value.DoubleValue
-51.599

@<SCITEGIC>MOL_PROPERTY
W(SA)
SciTegic.value.DoubleValue
2.276

@<SCITEGIC>MOL_PROPERTY
Valence
SciTegic.value.DoubleValue
2.085

@<SCITEGIC>MOL_PROPERTY
Coulomb
SciTegic.value.DoubleValue
68.999

@<SCITEGIC>MOL_PROPERTY
VdW
SciTegic.value.DoubleValue
0.395

@<SCITEGIC>MOL_PROPERTY
VdW6
SciTegic.value.DoubleValue
-6.752

@<SCITEGIC>MOL_PROPERTY
VdW12
SciTegic.value.DoubleValue
7.148

@<SCITEGIC>MOL_PROPERTY
Bond
SciTegic.value.DoubleValue
0.184

@<SCITEGIC>MOL_PROPERTY
Angle
SciTegic.value.DoubleValue
0.576

@<SCITEGIC>MOL_PROPERTY
Pdih
SciTegic.value.DoubleValue
1.325

@<SCITEGIC>MOL_PROPERTY
Idih
SciTegic.value.DoubleValue
0.000

@<SCITEGIC>MOL_PROPERTY
Tether
SciTegic.value.DoubleValue
0.000

@<TRIPOS>MOLECULE
guest-s12_vm2.mol2 : vm2 ligand conformer 10
          26          25           1
SMALL
USER_CHARGES
 
@<TRIPOS>ATOM
       1    N1      19.928131   18.743536   26.413478 N.4        1 MOL1        -0.4857
       2    H1      20.550833   17.922325   26.465577 H          1 MOL1         0.3650
       3    H2      18.971922   18.369946   26.518169 H          1 MOL1         0.3650
       4    C1      20.077634   19.428795   25.070022 C.3        1 MOL1         0.0209
       5    H3      21.102384   19.801486   24.995969 H          1 MOL1         0.0967
       6    H4      19.397901   20.284457   25.052616 H          1 MOL1         0.0967
       7    C2      19.775668   18.503123   23.877544 C.3        1 MOL1        -0.1378
       8    H5      20.449710   17.636628   23.908018 H          1 MOL1         0.0993
       9    H6      18.750936   18.118048   23.965156 H          1 MOL1         0.0993
      10    C3      19.940928   19.243147   22.531570 C.3        1 MOL1        -0.1338
      11    H7      20.964908   19.633206   22.460246 H          1 MOL1         0.0993
      12    H8      19.266531   20.110364   22.505408 H          1 MOL1         0.0993
      13    C4      19.642800   18.318969   21.326205 C.3        1 MOL1        -0.1338
      14    H9      20.349306   17.477442   21.320309 H          1 MOL1         0.0993
      15    H10     18.642378   17.881147   21.448264 H          1 MOL1         0.0993
      16    C5      19.696355   19.047803   19.961513 C.3        1 MOL1        -0.1313
      17    H11     18.974780   19.876718   19.954081 H          1 MOL1         0.0993
      18    H12     19.370887   18.350709   19.176644 H          1 MOL1         0.0993
      19    C6      21.102792   19.579620   19.602913 C.3        1 MOL1        -0.2328
      20    H13     21.106362   20.003683   18.590445 H          1 MOL1         0.1004
      21    H14     21.848763   18.774830   19.631869 H          1 MOL1         0.1004
      22    H15     21.422992   20.370764   20.292079 H          1 MOL1         0.1004
      23    C7      20.243691   19.725007   27.533756 C.3        1 MOL1        -0.0781
      24    H16     19.551451   20.568033   27.478282 H          1 MOL1         0.0978
      25    H17     20.132290   19.218916   28.495321 H          1 MOL1         0.0978
      26    H18     21.270155   20.080845   27.420983 H          1 MOL1         0.0978
@<TRIPOS>BOND
    1     1     2    1
    2     1     3    1
    3     1     4    1
    4     4     5    1
    5     4     6    1
    6     4     7    1
    7     7     8    1
    8     7     9    1
    9     7    10    1
   10    10    11    1
   11    10    12    1
   12    10    13    1
   13    13    14    1
   14    13    15    1
   15    13    16    1
   16    16    17    1
   17    16    18    1
   18    16    19    1
   19    19    20    1
   20    19    21    1
   21    19    22    1
   22     1    23    1
   23    23    24    1
   24    23    25    1
   25    23    26    1
@<TRIPOS>SUBSTRUCTURE
       1 MOL1            1 RESIDUE      1      MOL     
@<SCITEGIC>MOL_PROPERTY
VM2 Rank
SciTegic.value.IntegerValue
10

@<SCITEGIC>MOL_PROPERTY
Conf_Id
SciTegic.value.IntegerValue
1697

@<SCITEGIC>MOL_PROPERTY
Probability
SciTegic.value.DoubleValue
2.20

@<SCITEGIC>MOL_PROPERTY
Sum Probability
SciTegic.value.DoubleValue
33.63

@<SCITEGIC>MOL_PROPERTY
Delta G
SciTegic.value.DoubleValue
0.675

@<SCITEGIC>MOL_PROPERTY
G
SciTegic.value.DoubleValue
76.141

@<SCITEGIC>MOL_PROPERTY
E
SciTegic.value.DoubleValue
43.869

@<SCITEGIC>MOL_PROPERTY
-TS
SciTegic.value.DoubleValue
32.272

@<SCITEGIC>MOL_PROPERTY
U+W
SciTegic.value.DoubleValue
22.407

@<SCITEGIC>MOL_PROPERTY
U
SciTegic.value.DoubleValue
71.035

@<SCITEGIC>MOL_PROPERTY
W
SciTegic.value.DoubleValue
-48.628

@<SCITEGIC>MOL_PROPERTY
W(PB)
SciTegic.value.DoubleValue
-50.937

@<SCITEGIC>MOL_PROPERTY
W(SA)
SciTegic.value.DoubleValue
2.309

@<SCITEGIC>MOL_PROPERTY
Valence
SciTegic.value.DoubleValue
2.223

@<SCITEGIC>MOL_PROPERTY
Coulomb
SciTegic.value.DoubleValue
68.516

@<SCITEGIC>MOL_PROPERTY
VdW
SciTegic.value.DoubleValue
0.297

@<SCITEGIC>MOL_PROPERTY
VdW6
SciTegic.value.DoubleValue
-5.882

@<SCITEGIC>MOL_PROPERTY
VdW12
SciTegic.value.DoubleValue
6.178

@<SCITEGIC>MOL_PROPERTY
Bond
SciTegic.value.DoubleValue
0.162

@<SCITEGIC>MOL_PROPERTY
Angle
SciTegic.value.DoubleValue
0.596

@<SCITEGIC>MOL_PROPERTY
Pdih
SciTegic.value.DoubleValue
1.465

@<SCITEGIC>MOL_PROPERTY
Idih
SciTegic.value.DoubleValue
0.000

@<SCITEGIC>MOL_PROPERTY
Tether
SciTegic.value.DoubleValue
0.000

@<TRIPOS>MOLECULE
guest-s12_vm2.mol2 : vm2 ligand conformer 11
          26          25           1
SMALL
USER_CHARGES
 
@<TRIPOS>ATOM
       1    N1      20.019324   18.752961   26.416721 N.4        1 MOL1        -0.4857
       2    H1      21.021725   18.580422   26.590759 H          1 MOL1         0.3650
       3    H2      19.574110   17.822133   26.431062 H          1 MOL1         0.3650
       4    C1      19.828284   19.403199   25.061176 C.3        1 MOL1         0.0209
       5    H3      20.319814   20.379069   25.085181 H          1 MOL1         0.0967
       6    H4      18.756981   19.560767   24.912928 H          1 MOL1         0.0967
       7    C2      20.394427   18.566555   23.899466 C.3        1 MOL1        -0.1378
       8    H5      21.467236   18.396589   24.061412 H          1 MOL1         0.0993
       9    H6      19.909592   17.581213   23.888887 H          1 MOL1         0.0993
      10    C3      20.177288   19.267343   22.539928 C.3        1 MOL1        -0.1338
      11    H7      20.662162   20.253366   22.554774 H          1 MOL1         0.0993
      12    H8      19.103077   19.442365   22.394313 H          1 MOL1         0.0993
      13    C4      20.740057   18.431347   21.365068 C.3        1 MOL1        -0.1338
      14    H9      21.797361   18.204332   21.560014 H          1 MOL1         0.0993
      15    H10     20.220794   17.464243   21.315771 H          1 MOL1         0.0993
      16    C5      20.635698   19.143978   19.994768 C.3        1 MOL1        -0.1313
      17    H11     21.149641   18.532821   19.239626 H          1 MOL1         0.0993
      18    H12     21.173258   20.101827   20.031883 H          1 MOL1         0.0993
      19    C6      19.179337   19.382643   19.534828 C.3        1 MOL1        -0.2328
      20    H13     19.160855   19.804405   18.521562 H          1 MOL1         0.1004
      21    H14     18.658210   20.087669   20.194185 H          1 MOL1         0.1004
      22    H15     18.611545   18.443333   19.517320 H          1 MOL1         0.1004
      23    C7      19.433585   19.641976   27.505044 C.3        1 MOL1        -0.0781
      24    H16     19.577880   19.162228   28.475699 H          1 MOL1         0.0978
      25    H17     19.942452   20.608335   27.491967 H          1 MOL1         0.0978
      26    H18     18.366714   19.782851   27.318216 H          1 MOL1         0.0978
@<TRIPOS>BOND
    1     1     2    1
    2     1     3    1
    3     1     4    1
    4     4     5    1
    5     4     6    1
    6     4     7    1
    7     7     8    1
    8     7     9    1
    9     7    10    1
   10    10    11    1
   11    10    12    1
   12    10    13    1
   13    13    14    1
   14    13    15    1
   15    13    16    1
   16    16    17    1
   17    16    18    1
   18    16    19    1
   19    19    20    1
   20    19    21    1
   21    19    22    1
   22     1    23    1
   23    23    24    1
   24    23    25    1
   25    23    26    1
@<TRIPOS>SUBSTRUCTURE
       1 MOL1            1 RESIDUE      1      MOL     
@<SCITEGIC>MOL_PROPERTY
VM2 Rank
SciTegic.value.IntegerValue
11

@<SCITEGIC>MOL_PROPERTY
Conf_Id
SciTegic.value.IntegerValue
441

@<SCITEGIC>MOL_PROPERTY
Probability
SciTegic.value.DoubleValue
2.17

@<SCITEGIC>MOL_PROPERTY
Sum Probability
SciTegic.value.DoubleValue
35.80

@<SCITEGIC>MOL_PROPERTY
Delta G
SciTegic.value.DoubleValue
0.685

@<SCITEGIC>MOL_PROPERTY
G
SciTegic.value.DoubleValue
76.151

@<SCITEGIC>MOL_PROPERTY
E
SciTegic.value.DoubleValue
43.878

@<SCITEGIC>MOL_PROPERTY
-TS
SciTegic.value.DoubleValue
32.272

@<SCITEGIC>MOL_PROPERTY
U+W
SciTegic.value.DoubleValue
22.416

@<SCITEGIC>MOL_PROPERTY
U
SciTegic.value.DoubleValue
71.035

@<SCITEGIC>MOL_PROPERTY
W
SciTegic.value.DoubleValue
-48.619

@<SCITEGIC>MOL_PROPERTY
W(PB)
SciTegic.value.DoubleValue
-50.943

@<SCITEGIC>MOL_PROPERTY
W(SA)
SciTegic.value.DoubleValue
2.325

@<SCITEGIC>MOL_PROPERTY
Valence
SciTegic.value.DoubleValue
2.223

@<SCITEGIC>MOL_PROPERTY
Coulomb
SciTegic.value.DoubleValue
68.516

@<SCITEGIC>MOL_PROPERTY
VdW
SciTegic.value.DoubleValue
0.297

@<SCITEGIC>MOL_PROPERTY
VdW6
SciTegic.value.DoubleValue
-5.882

@<SCITEGIC>MOL_PROPERTY
VdW12
SciTegic.value.DoubleValue
6.178

@<SCITEGIC>MOL_PROPERTY
Bond
SciTegic.value.DoubleValue
0.162

@<SCITEGIC>MOL_PROPERTY
Angle
SciTegic.value.DoubleValue
0.596

@<SCITEGIC>MOL_PROPERTY
Pdih
SciTegic.value.DoubleValue
1.465

@<SCITEGIC>MOL_PROPERTY
Idih
SciTegic.value.DoubleValue
0.000

@<SCITEGIC>MOL_PROPERTY
Tether
SciTegic.value.DoubleValue
0.000

@<TRIPOS>MOLECULE
guest-s12_vm2.mol2 : vm2 ligand conformer 12
          26          25           1
SMALL
USER_CHARGES
 
@<TRIPOS>ATOM
       1    N1      19.492113   18.774851   26.321571 N.4        1 MOL1        -0.4857
       2    H1      18.889933   18.024954   26.697011 H          1 MOL1         0.3650
       3    H2      19.147809   19.640058   26.765785 H          1 MOL1         0.3650
       4    C1      19.323944   18.855525   24.813647 C.3        1 MOL1         0.0209
       5    H3      18.250913   18.875161   24.606722 H          1 MOL1         0.0967
       6    H4      19.736414   17.940459   24.382160 H          1 MOL1         0.0967
       7    C2      19.982616   20.089917   24.161617 C.3        1 MOL1        -0.1378
       8    H5      19.609191   20.997226   24.654490 H          1 MOL1         0.0993
       9    H6      21.067677   20.067169   24.325823 H          1 MOL1         0.0993
      10    C3      19.694076   20.187016   22.644967 C.3        1 MOL1        -0.1338
      11    H7      20.111272   21.130559   22.266643 H          1 MOL1         0.0993
      12    H8      18.608740   20.239773   22.480962 H          1 MOL1         0.0993
      13    C4      20.288012   19.007657   21.837422 C.3        1 MOL1        -0.1338
      14    H9      21.367710   18.938046   22.029390 H          1 MOL1         0.0993
      15    H10     19.843716   18.061104   22.173174 H          1 MOL1         0.0993
      16    C5      20.045416   19.170717   20.320288 C.3        1 MOL1        -0.1313
      17    H11     20.493704   20.111583   19.971303 H          1 MOL1         0.0993
      18    H12     18.966582   19.241546   20.122554 H          1 MOL1         0.0993
      19    C6      20.636978   17.993242   19.516209 C.3        1 MOL1        -0.2328
      20    H13     20.455203   18.127275   18.441956 H          1 MOL1         0.1004
      21    H14     20.182388   17.040700   19.818209 H          1 MOL1         0.1004
      22    H15     21.721717   17.917371   19.667158 H          1 MOL1         0.1004
      23    C7      20.944842   18.511076   26.701279 C.3        1 MOL1        -0.0781
      24    H16     21.274890   17.581205   26.233049 H          1 MOL1         0.0978
      25    H17     21.565319   19.340591   26.356358 H          1 MOL1         0.0978
      26    H18     21.019834   18.423740   27.787482 H          1 MOL1         0.0978
@<TRIPOS>BOND
    1     1     2    1
    2     1     3    1
    3     1     4    1
    4     4     5    1
    5     4     6    1
    6     4     7    1
    7     7     8    1
    8     7     9    1
    9     7    10    1
   10    10    11    1
   11    10    12    1
   12    10    13    1
   13    13    14    1
   14    13    15    1
   15    13    16    1
   16    16    17    1
   17    16    18    1
   18    16    19    1
   19    19    20    1
   20    19    21    1
   21    19    22    1
   22     1    23    1
   23    23    24    1
   24    23    25    1
   25    23    26    1
@<TRIPOS>SUBSTRUCTURE
       1 MOL1            1 RESIDUE      1      MOL     
@<SCITEGIC>MOL_PROPERTY
VM2 Rank
SciTegic.value.IntegerValue
12

@<SCITEGIC>MOL_PROPERTY
Conf_Id
SciTegic.value.IntegerValue
836

@<SCITEGIC>MOL_PROPERTY
Probability
SciTegic.value.DoubleValue
1.98

@<SCITEGIC>MOL_PROPERTY
Sum Probability
SciTegic.value.DoubleValue
37.78

@<SCITEGIC>MOL_PROPERTY
Delta G
SciTegic.value.DoubleValue
0.739

@<SCITEGIC>MOL_PROPERTY
G
SciTegic.value.DoubleValue
76.205

@<SCITEGIC>MOL_PROPERTY
E
SciTegic.value.DoubleValue
43.779

@<SCITEGIC>MOL_PROPERTY
-TS
SciTegic.value.DoubleValue
32.426

@<SCITEGIC>MOL_PROPERTY
U+W
SciTegic.value.DoubleValue
22.317

@<SCITEGIC>MOL_PROPERTY
U
SciTegic.value.DoubleValue
71.511

@<SCITEGIC>MOL_PROPERTY
W
SciTegic.value.DoubleValue
-49.194

@<SCITEGIC>MOL_PROPERTY
W(PB)
SciTegic.value.DoubleValue
-51.483

@<SCITEGIC>MOL_PROPERTY
W(SA)
SciTegic.value.DoubleValue
2.289

@<SCITEGIC>MOL_PROPERTY
Valence
SciTegic.value.DoubleValue
2.291

@<SCITEGIC>MOL_PROPERTY
Coulomb
SciTegic.value.DoubleValue
68.784

@<SCITEGIC>MOL_PROPERTY
VdW
SciTegic.value.DoubleValue
0.437

@<SCITEGIC>MOL_PROPERTY
VdW6
SciTegic.value.DoubleValue
-6.615

@<SCITEGIC>MOL_PROPERTY
VdW12
SciTegic.value.DoubleValue
7.052

@<SCITEGIC>MOL_PROPERTY
Bond
SciTegic.value.DoubleValue
0.185

@<SCITEGIC>MOL_PROPERTY
Angle
SciTegic.value.DoubleValue
0.586

@<SCITEGIC>MOL_PROPERTY
Pdih
SciTegic.value.DoubleValue
1.520

@<SCITEGIC>MOL_PROPERTY
Idih
SciTegic.value.DoubleValue
0.000

@<SCITEGIC>MOL_PROPERTY
Tether
SciTegic.value.DoubleValue
0.000

@<TRIPOS>MOLECULE
guest-s12_vm2.mol2 : vm2 ligand conformer 13
          26          25           1
SMALL
USER_CHARGES
 
@<TRIPOS>ATOM
       1    N1      20.443044   18.868335   26.355308 N.4        1 MOL1        -0.4857
       2    H1      20.580366   19.780894   26.816647 H          1 MOL1         0.3650
       3    H2      21.151704   18.247330   26.777299 H          1 MOL1         0.3650
       4    C1      20.697853   18.990622   24.862414 C.3        1 MOL1         0.0209
       5    H3      20.502523   18.015840   24.409309 H          1 MOL1         0.0967
       6    H4      21.758427   19.219936   24.731274 H          1 MOL1         0.0967
       7    C2      19.859245   20.077895   24.157230 C.3        1 MOL1        -0.1378
       8    H5      18.790498   19.843567   24.245033 H          1 MOL1         0.0993
       9    H6      20.013679   21.037077   24.668795 H          1 MOL1         0.0993
      10    C3      20.229150   20.239610   22.663936 C.3        1 MOL1        -0.1338
      11    H7      21.292333   20.503374   22.576151 H          1 MOL1         0.0993
      12    H8      19.664176   21.086676   22.250731 H          1 MOL1         0.0993
      13    C4      19.933872   18.972885   21.824891 C.3        1 MOL1        -0.1338
      14    H9      20.528927   18.128420   22.197559 H          1 MOL1         0.0993
      15    H10     18.877516   18.693502   21.941076 H          1 MOL1         0.0993
      16    C5      20.246059   19.190360   20.327435 C.3        1 MOL1        -0.1313
      17    H11     21.301754   19.470755   20.205423 H          1 MOL1         0.0993
      18    H12     19.649172   20.028593   19.941337 H          1 MOL1         0.0993
      19    C6      19.952408   17.925943   19.491997 C.3        1 MOL1        -0.2328
      20    H13     20.560994   17.077789   19.831776 H          1 MOL1         0.1004
      21    H14     20.179667   18.100080   18.432254 H          1 MOL1         0.1004
      22    H15     18.895190   17.639805   19.566935 H          1 MOL1         0.1004
      23    C7      19.046368   18.324350   26.633789 C.3        1 MOL1        -0.0781
      24    H16     18.302167   19.019678   26.240417 H          1 MOL1         0.0978
      25    H17     18.937265   17.351307   26.149935 H          1 MOL1         0.0978
      26    H18     18.913666   18.216556   27.712611 H          1 MOL1         0.0978
@<TRIPOS>BOND
    1     1     2    1
    2     1     3    1
    3     1     4    1
    4     4     5    1
    5     4     6    1
    6     4     7    1
    7     7     8    1
    8     7     9    1
    9     7    10    1
   10    10    11    1
   11    10    12    1
   12    10    13    1
   13    13    14    1
   14    13    15    1
   15    13    16    1
   16    16    17    1
   17    16    18    1
   18    16    19    1
   19    19    20    1
   20    19    21    1
   21    19    22    1
   22     1    23    1
   23    23    24    1
   24    23    25    1
   25    23    26    1
@<TRIPOS>SUBSTRUCTURE
       1 MOL1            1 RESIDUE      1      MOL     
@<SCITEGIC>MOL_PROPERTY
VM2 Rank
SciTegic.value.IntegerValue
13

@<SCITEGIC>MOL_PROPERTY
Conf_Id
SciTegic.value.IntegerValue
1586

@<SCITEGIC>MOL_PROPERTY
Probability
SciTegic.value.DoubleValue
1.97

@<SCITEGIC>MOL_PROPERTY
Sum Probability
SciTegic.value.DoubleValue
39.75

@<SCITEGIC>MOL_PROPERTY
Delta G
SciTegic.value.DoubleValue
0.742

@<SCITEGIC>MOL_PROPERTY
G
SciTegic.value.DoubleValue
76.208

@<SCITEGIC>MOL_PROPERTY
E
SciTegic.value.DoubleValue
43.782

@<SCITEGIC>MOL_PROPERTY
-TS
SciTegic.value.DoubleValue
32.426

@<SCITEGIC>MOL_PROPERTY
U+W
SciTegic.value.DoubleValue
22.320

@<SCITEGIC>MOL_PROPERTY
U
SciTegic.value.DoubleValue
71.511

@<SCITEGIC>MOL_PROPERTY
W
SciTegic.value.DoubleValue
-49.192

@<SCITEGIC>MOL_PROPERTY
W(PB)
SciTegic.value.DoubleValue
-51.480

@<SCITEGIC>MOL_PROPERTY
W(SA)
SciTegic.value.DoubleValue
2.288

@<SCITEGIC>MOL_PROPERTY
Valence
SciTegic.value.DoubleValue
2.291

@<SCITEGIC>MOL_PROPERTY
Coulomb
SciTegic.value.DoubleValue
68.784

@<SCITEGIC>MOL_PROPERTY
VdW
SciTegic.value.DoubleValue
0.437

@<SCITEGIC>MOL_PROPERTY
VdW6
SciTegic.value.DoubleValue
-6.615

@<SCITEGIC>MOL_PROPERTY
VdW12
SciTegic.value.DoubleValue
7.052

@<SCITEGIC>MOL_PROPERTY
Bond
SciTegic.value.DoubleValue
0.185

@<SCITEGIC>MOL_PROPERTY
Angle
SciTegic.value.DoubleValue
0.586

@<SCITEGIC>MOL_PROPERTY
Pdih
SciTegic.value.DoubleValue
1.520

@<SCITEGIC>MOL_PROPERTY
Idih
SciTegic.value.DoubleValue
0.000

@<SCITEGIC>MOL_PROPERTY
Tether
SciTegic.value.DoubleValue
0.000

@<TRIPOS>MOLECULE
guest-s12_vm2.mol2 : vm2 ligand conformer 14
          26          25           1
SMALL
USER_CHARGES
 
@<TRIPOS>ATOM
       1    N1      19.553436   18.550887   26.183653 N.4        1 MOL1        -0.4857
       2    H1      20.070572   17.658201   26.206799 H          1 MOL1         0.3650
       3    H2      18.585561   18.300986   25.927582 H          1 MOL1         0.3650
       4    C1      20.149346   19.473489   25.139326 C.3        1 MOL1         0.0209
       5    H3      21.173017   19.706549   25.443082 H          1 MOL1         0.0967
       6    H4      19.570199   20.400357   25.141044 H          1 MOL1         0.0967
       7    C2      20.154121   18.868514   23.723681 C.3        1 MOL1        -0.1378
       8    H5      20.723265   17.929415   23.730471 H          1 MOL1         0.0993
       9    H6      19.124024   18.621567   23.437723 H          1 MOL1         0.0993
      10    C3      20.773255   19.845473   22.696338 C.3        1 MOL1        -0.1338
      11    H7      21.772097   20.143291   23.044751 H          1 MOL1         0.0993
      12    H8      20.175181   20.766395   22.653520 H          1 MOL1         0.0993
      13    C4      20.907801   19.247313   21.274087 C.3        1 MOL1        -0.1338
      14    H9      21.459235   19.961610   20.647068 H          1 MOL1         0.0993
      15    H10     21.520739   18.336233   21.313902 H          1 MOL1         0.0993
      16    C5      19.549740   18.933509   20.602275 C.3        1 MOL1        -0.1313
      17    H11     18.915999   19.831354   20.608758 H          1 MOL1         0.0993
      18    H12     19.014283   18.161547   21.170677 H          1 MOL1         0.0993
      19    C6      19.732546   18.447446   19.148538 C.3        1 MOL1        -0.2328
      20    H13     20.338173   17.532541   19.111505 H          1 MOL1         0.1004
      21    H14     20.229065   19.211082   18.535740 H          1 MOL1         0.1004
      22    H15     18.760647   18.226741   18.688402 H          1 MOL1         0.1004
      23    C7      19.587756   19.223368   27.549103 C.3        1 MOL1        -0.0781
      24    H16     19.007230   20.147673   27.508938 H          1 MOL1         0.0978
      25    H17     19.156017   18.548597   28.291688 H          1 MOL1         0.0978
      26    H18     20.623577   19.447980   27.812899 H          1 MOL1         0.0978
@<TRIPOS>BOND
    1     1     2    1
    2     1     3    1
    3     1     4    1
    4     4     5    1
    5     4     6    1
    6     4     7    1
    7     7     8    1
    8     7     9    1
    9     7    10    1
   10    10    11    1
   11    10    12    1
   12    10    13    1
   13    13    14    1
   14    13    15    1
   15    13    16    1
   16    16    17    1
   17    16    18    1
   18    16    19    1
   19    19    20    1
   20    19    21    1
   21    19    22    1
   22     1    23    1
   23    23    24    1
   24    23    25    1
   25    23    26    1
@<TRIPOS>SUBSTRUCTURE
       1 MOL1            1 RESIDUE      1      MOL     
@<SCITEGIC>MOL_PROPERTY
VM2 Rank
SciTegic.value.IntegerValue
14

@<SCITEGIC>MOL_PROPERTY
Conf_Id
SciTegic.value.IntegerValue
1745

@<SCITEGIC>MOL_PROPERTY
Probability
SciTegic.value.DoubleValue
1.91

@<SCITEGIC>MOL_PROPERTY
Sum Probability
SciTegic.value.DoubleValue
41.66

@<SCITEGIC>MOL_PROPERTY
Delta G
SciTegic.value.DoubleValue
0.759

@<SCITEGIC>MOL_PROPERTY
G
SciTegic.value.DoubleValue
76.225

@<SCITEGIC>MOL_PROPERTY
E
SciTegic.value.DoubleValue
43.964

@<SCITEGIC>MOL_PROPERTY
-TS
SciTegic.value.DoubleValue
32.261

@<SCITEGIC>MOL_PROPERTY
U+W
SciTegic.value.DoubleValue
22.502

@<SCITEGIC>MOL_PROPERTY
U
SciTegic.value.DoubleValue
71.348

@<SCITEGIC>MOL_PROPERTY
W
SciTegic.value.DoubleValue
-48.846

@<SCITEGIC>MOL_PROPERTY
W(PB)
SciTegic.value.DoubleValue
-51.157

@<SCITEGIC>MOL_PROPERTY
W(SA)
SciTegic.value.DoubleValue
2.311

@<SCITEGIC>MOL_PROPERTY
Valence
SciTegic.value.DoubleValue
2.261

@<SCITEGIC>MOL_PROPERTY
Coulomb
SciTegic.value.DoubleValue
68.807

@<SCITEGIC>MOL_PROPERTY
VdW
SciTegic.value.DoubleValue
0.280

@<SCITEGIC>MOL_PROPERTY
VdW6
SciTegic.value.DoubleValue
-5.916

@<SCITEGIC>MOL_PROPERTY
VdW12
SciTegic.value.DoubleValue
6.196

@<SCITEGIC>MOL_PROPERTY
Bond
SciTegic.value.DoubleValue
0.164

@<SCITEGIC>MOL_PROPERTY
Angle
SciTegic.value.DoubleValue
0.622

@<SCITEGIC>MOL_PROPERTY
Pdih
SciTegic.value.DoubleValue
1.475

@<SCITEGIC>MOL_PROPERTY
Idih
SciTegic.value.DoubleValue
0.000

@<SCITEGIC>MOL_PROPERTY
Tether
SciTegic.value.DoubleValue
0.000

@<TRIPOS>MOLECULE
guest-s12_vm2.mol2 : vm2 ligand conformer 15
          26          25           1
SMALL
USER_CHARGES
 
@<TRIPOS>ATOM
       1    N1      20.439646   18.641138   26.215049 N.4        1 MOL1        -0.4857
       2    H1      21.453523   18.593077   26.029174 H          1 MOL1         0.3650
       3    H2      20.112528   17.662465   26.208278 H          1 MOL1         0.3650
       4    C1      19.744796   19.432282   25.125004 C.3        1 MOL1         0.0209
       5    H3      20.123836   20.456760   25.160703 H          1 MOL1         0.0967
       6    H4      18.676450   19.452222   25.354628 H          1 MOL1         0.0967
       7    C2      19.961157   18.848887   23.716845 C.3        1 MOL1        -0.1378
       8    H5      21.037334   18.816497   23.505540 H          1 MOL1         0.0993
       9    H6      19.593753   17.814385   23.690432 H          1 MOL1         0.0993
      10    C3      19.231501   19.688457   22.641699 C.3        1 MOL1        -0.1338
      11    H7      19.633353   20.711240   22.634328 H          1 MOL1         0.0993
      12    H8      18.171241   19.776517   22.917136 H          1 MOL1         0.0993
      13    C4      19.320161   19.085634   21.217813 C.3        1 MOL1        -0.1338
      14    H9      18.902025   18.069515   21.221088 H          1 MOL1         0.0993
      15    H10     18.681472   19.678689   20.548624 H          1 MOL1         0.0993
      16    C5      20.757249   19.056583   20.645035 C.3        1 MOL1        -0.1313
      17    H11     21.396088   18.404356   21.255121 H          1 MOL1         0.0993
      18    H12     21.195080   20.063625   20.689360 H          1 MOL1         0.0993
      19    C6      20.778403   18.553861   19.185633 C.3        1 MOL1        -0.2328
      20    H13     20.373556   17.536011   19.112919 H          1 MOL1         0.1004
      21    H14     21.804640   18.536647   18.796320 H          1 MOL1         0.1004
      22    H15     20.182453   19.206122   18.534024 H          1 MOL1         0.1004
      23    C7      20.175087   19.283158   27.569922 C.3        1 MOL1        -0.0781
      24    H16     19.099380   19.292661   27.758946 H          1 MOL1         0.0978
      25    H17     20.680811   18.703878   28.345696 H          1 MOL1         0.0978
      26    H18     20.558918   20.305705   27.563920 H          1 MOL1         0.0978
@<TRIPOS>BOND
    1     1     2    1
    2     1     3    1
    3     1     4    1
    4     4     5    1
    5     4     6    1
    6     4     7    1
    7     7     8    1
    8     7     9    1
    9     7    10    1
   10    10    11    1
   11    10    12    1
   12    10    13    1
   13    13    14    1
   14    13    15    1
   15    13    16    1
   16    16    17    1
   17    16    18    1
   18    16    19    1
   19    19    20    1
   20    19    21    1
   21    19    22    1
   22     1    23    1
   23    23    24    1
   24    23    25    1
   25    23    26    1
@<TRIPOS>SUBSTRUCTURE
       1 MOL1            1 RESIDUE      1      MOL     
@<SCITEGIC>MOL_PROPERTY
VM2 Rank
SciTegic.value.IntegerValue
15

@<SCITEGIC>MOL_PROPERTY
Conf_Id
SciTegic.value.IntegerValue
1808

@<SCITEGIC>MOL_PROPERTY
Probability
SciTegic.value.DoubleValue
1.89

@<SCITEGIC>MOL_PROPERTY
Sum Probability
SciTegic.value.DoubleValue
43.55

@<SCITEGIC>MOL_PROPERTY
Delta G
SciTegic.value.DoubleValue
0.766

@<SCITEGIC>MOL_PROPERTY
G
SciTegic.value.DoubleValue
76.232

@<SCITEGIC>MOL_PROPERTY
E
SciTegic.value.DoubleValue
43.972

@<SCITEGIC>MOL_PROPERTY
-TS
SciTegic.value.DoubleValue
32.261

@<SCITEGIC>MOL_PROPERTY
U+W
SciTegic.value.DoubleValue
22.510

@<SCITEGIC>MOL_PROPERTY
U
SciTegic.value.DoubleValue
71.349

@<SCITEGIC>MOL_PROPERTY
W
SciTegic.value.DoubleValue
-48.839

@<SCITEGIC>MOL_PROPERTY
W(PB)
SciTegic.value.DoubleValue
-51.152

@<SCITEGIC>MOL_PROPERTY
W(SA)
SciTegic.value.DoubleValue
2.313

@<SCITEGIC>MOL_PROPERTY
Valence
SciTegic.value.DoubleValue
2.262

@<SCITEGIC>MOL_PROPERTY
Coulomb
SciTegic.value.DoubleValue
68.807

@<SCITEGIC>MOL_PROPERTY
VdW
SciTegic.value.DoubleValue
0.280

@<SCITEGIC>MOL_PROPERTY
VdW6
SciTegic.value.DoubleValue
-5.916

@<SCITEGIC>MOL_PROPERTY
VdW12
SciTegic.value.DoubleValue
6.195

@<SCITEGIC>MOL_PROPERTY
Bond
SciTegic.value.DoubleValue
0.164

@<SCITEGIC>MOL_PROPERTY
Angle
SciTegic.value.DoubleValue
0.622

@<SCITEGIC>MOL_PROPERTY
Pdih
SciTegic.value.DoubleValue
1.475

@<SCITEGIC>MOL_PROPERTY
Idih
SciTegic.value.DoubleValue
0.000

@<SCITEGIC>MOL_PROPERTY
Tether
SciTegic.value.DoubleValue
0.000

@<TRIPOS>MOLECULE
guest-s12_vm2.mol2 : vm2 ligand conformer 16
          26          25           1
SMALL
USER_CHARGES
 
@<TRIPOS>ATOM
       1    N1      19.632526   18.306242   26.178779 N.4        1 MOL1        -0.4857
       2    H1      20.399016   17.616410   26.211507 H          1 MOL1         0.3650
       3    H2      18.785048   17.774973   26.434636 H          1 MOL1         0.3650
       4    C1      19.481073   18.857289   24.770721 C.3        1 MOL1         0.0209
       5    H3      18.694461   19.615731   24.788805 H          1 MOL1         0.0967
       6    H4      19.143554   18.033182   24.137843 H          1 MOL1         0.0967
       7    C2      20.773319   19.455374   24.174271 C.3        1 MOL1        -0.1378
       8    H5      21.117425   20.284480   24.805742 H          1 MOL1         0.0993
       9    H6      21.569477   18.699352   24.187662 H          1 MOL1         0.0993
      10    C3      20.578448   19.979381   22.731728 C.3        1 MOL1        -0.1338
      11    H7      21.505279   20.473652   22.409013 H          1 MOL1         0.0993
      12    H8      19.796703   20.751704   22.725174 H          1 MOL1         0.0993
      13    C4      20.219177   18.863456   21.720996 C.3        1 MOL1        -0.1338
      14    H9      20.984539   18.075787   21.756045 H          1 MOL1         0.0993
      15    H10     19.266691   18.394452   22.001575 H          1 MOL1         0.0993
      16    C5      20.108878   19.408538   20.279493 C.3        1 MOL1        -0.1313
      17    H11     21.060114   19.873151   19.984077 H          1 MOL1         0.0993
      18    H12     19.344940   20.197675   20.238659 H          1 MOL1         0.0993
      19    C6      19.749135   18.295234   19.272474 C.3        1 MOL1        -0.2328
      20    H13     20.512989   17.506764   19.265893 H          1 MOL1         0.1004
      21    H14     19.675934   18.701434   18.255287 H          1 MOL1         0.1004
      22    H15     18.784267   17.834345   19.521077 H          1 MOL1         0.1004
      23    C7      19.865444   19.424486   27.188539 C.3        1 MOL1        -0.0781
      24    H16     19.031242   20.127991   27.143534 H          1 MOL1         0.0978
      25    H17     19.930373   18.993369   28.190042 H          1 MOL1         0.0978
      26    H18     20.798154   19.939390   26.949981 H          1 MOL1         0.0978
@<TRIPOS>BOND
    1     1     2    1
    2     1     3    1
    3     1     4    1
    4     4     5    1
    5     4     6    1
    6     4     7    1
    7     7     8    1
    8     7     9    1
    9     7    10    1
   10    10    11    1
   11    10    12    1
   12    10    13    1
   13    13    14    1
   14    13    15    1
   15    13    16    1
   16    16    17    1
   17    16    18    1
   18    16    19    1
   19    19    20    1
   20    19    21    1
   21    19    22    1
   22     1    23    1
   23    23    24    1
   24    23    25    1
   25    23    26    1
@<TRIPOS>SUBSTRUCTURE
       1 MOL1            1 RESIDUE      1      MOL     
@<SCITEGIC>MOL_PROPERTY
VM2 Rank
SciTegic.value.IntegerValue
16

@<SCITEGIC>MOL_PROPERTY
Conf_Id
SciTegic.value.IntegerValue
1308

@<SCITEGIC>MOL_PROPERTY
Probability
SciTegic.value.DoubleValue
1.76

@<SCITEGIC>MOL_PROPERTY
Sum Probability
SciTegic.value.DoubleValue
45.31

@<SCITEGIC>MOL_PROPERTY
Delta G
SciTegic.value.DoubleValue
0.809

@<SCITEGIC>MOL_PROPERTY
G
SciTegic.value.DoubleValue
76.275

@<SCITEGIC>MOL_PROPERTY
E
SciTegic.value.DoubleValue
43.847

@<SCITEGIC>MOL_PROPERTY
-TS
SciTegic.value.DoubleValue
32.428

@<SCITEGIC>MOL_PROPERTY
U+W
SciTegic.value.DoubleValue
22.385

@<SCITEGIC>MOL_PROPERTY
U
SciTegic.value.DoubleValue
71.628

@<SCITEGIC>MOL_PROPERTY
W
SciTegic.value.DoubleValue
-49.242

@<SCITEGIC>MOL_PROPERTY
W(PB)
SciTegic.value.DoubleValue
-51.545

@<SCITEGIC>MOL_PROPERTY
W(SA)
SciTegic.value.DoubleValue
2.302

@<SCITEGIC>MOL_PROPERTY
Valence
SciTegic.value.DoubleValue
2.314

@<SCITEGIC>MOL_PROPERTY
Coulomb
SciTegic.value.DoubleValue
68.823

@<SCITEGIC>MOL_PROPERTY
VdW
SciTegic.value.DoubleValue
0.491

@<SCITEGIC>MOL_PROPERTY
VdW6
SciTegic.value.DoubleValue
-6.572

@<SCITEGIC>MOL_PROPERTY
VdW12
SciTegic.value.DoubleValue
7.063

@<SCITEGIC>MOL_PROPERTY
Bond
SciTegic.value.DoubleValue
0.188

@<SCITEGIC>MOL_PROPERTY
Angle
SciTegic.value.DoubleValue
0.606

@<SCITEGIC>MOL_PROPERTY
Pdih
SciTegic.value.DoubleValue
1.519

@<SCITEGIC>MOL_PROPERTY
Idih
SciTegic.value.DoubleValue
0.000

@<SCITEGIC>MOL_PROPERTY
Tether
SciTegic.value.DoubleValue
0.000

@<TRIPOS>MOLECULE
guest-s12_vm2.mol2 : vm2 ligand conformer 17
          26          25           1
SMALL
USER_CHARGES
 
@<TRIPOS>ATOM
       1    N1      20.412037   18.385689   26.206434 N.4        1 MOL1        -0.4857
       2    H1      21.329090   18.034101   26.524759 H          1 MOL1         0.3650
       3    H2      19.799698   17.555488   26.190511 H          1 MOL1         0.3650
       4    C1      20.547579   18.965752   24.808448 C.3        1 MOL1         0.0209
       5    H3      21.087518   18.230907   24.206719 H          1 MOL1         0.0967
       6    H4      21.162171   19.866882   24.875981 H          1 MOL1         0.0967
       7    C2      19.206348   19.295585   24.118765 C.3        1 MOL1        -0.1378
       8    H5      18.579817   18.394638   24.081758 H          1 MOL1         0.0993
       9    H6      18.658972   20.033864   24.718687 H          1 MOL1         0.0993
      10    C3      19.392206   19.858423   22.689725 C.3        1 MOL1        -0.1338
      11    H7      20.000828   20.772426   22.732467 H          1 MOL1         0.0993
      12    H8      18.409733   20.158145   22.299367 H          1 MOL1         0.0993
      13    C4      20.038842   18.845036   21.714606 C.3        1 MOL1        -0.1338
      14    H9      21.044215   18.575499   22.064594 H          1 MOL1         0.0993
      15    H10     19.447297   17.919112   21.701491 H          1 MOL1         0.0993
      16    C5      20.137861   19.411533   20.280560 C.3        1 MOL1        -0.1313
      17    H11     20.728022   20.338712   20.287829 H          1 MOL1         0.0993
      18    H12     19.135620   19.677023   19.915849 H          1 MOL1         0.0993
      19    C6      20.784338   18.400876   19.309175 C.3        1 MOL1        -0.2328
      20    H13     21.802428   18.142114   19.628124 H          1 MOL1         0.1004
      21    H14     20.845346   18.820838   18.296783 H          1 MOL1         0.1004
      22    H15     20.197450   17.474709   19.254591 H          1 MOL1         0.1004
      23    C7      19.888790   19.427107   27.189286 C.3        1 MOL1        -0.0781
      24    H16     18.890517   19.745337   26.882425 H          1 MOL1         0.0978
      25    H17     19.842156   18.984804   28.186923 H          1 MOL1         0.0978
      26    H18     20.565349   20.284449   27.197528 H          1 MOL1         0.0978
@<TRIPOS>BOND
    1     1     2    1
    2     1     3    1
    3     1     4    1
    4     4     5    1
    5     4     6    1
    6     4     7    1
    7     7     8    1
    8     7     9    1
    9     7    10    1
   10    10    11    1
   11    10    12    1
   12    10    13    1
   13    13    14    1
   14    13    15    1
   15    13    16    1
   16    16    17    1
   17    16    18    1
   18    16    19    1
   19    19    20    1
   20    19    21    1
   21    19    22    1
   22     1    23    1
   23    23    24    1
   24    23    25    1
   25    23    26    1
@<TRIPOS>SUBSTRUCTURE
       1 MOL1            1 RESIDUE      1      MOL     
@<SCITEGIC>MOL_PROPERTY
VM2 Rank
SciTegic.value.IntegerValue
17

@<SCITEGIC>MOL_PROPERTY
Conf_Id
SciTegic.value.IntegerValue
1033

@<SCITEGIC>MOL_PROPERTY
Probability
SciTegic.value.DoubleValue
1.66

@<SCITEGIC>MOL_PROPERTY
Sum Probability
SciTegic.value.DoubleValue
46.97

@<SCITEGIC>MOL_PROPERTY
Delta G
SciTegic.value.DoubleValue
0.843

@<SCITEGIC>MOL_PROPERTY
G
SciTegic.value.DoubleValue
76.309

@<SCITEGIC>MOL_PROPERTY
E
SciTegic.value.DoubleValue
43.881

@<SCITEGIC>MOL_PROPERTY
-TS
SciTegic.value.DoubleValue
32.428

@<SCITEGIC>MOL_PROPERTY
U+W
SciTegic.value.DoubleValue
22.420

@<SCITEGIC>MOL_PROPERTY
U
SciTegic.value.DoubleValue
71.628

@<SCITEGIC>MOL_PROPERTY
W
SciTegic.value.DoubleValue
-49.208

@<SCITEGIC>MOL_PROPERTY
W(PB)
SciTegic.value.DoubleValue
-51.516

@<SCITEGIC>MOL_PROPERTY
W(SA)
SciTegic.value.DoubleValue
2.308

@<SCITEGIC>MOL_PROPERTY
Valence
SciTegic.value.DoubleValue
2.314

@<SCITEGIC>MOL_PROPERTY
Coulomb
SciTegic.value.DoubleValue
68.823

@<SCITEGIC>MOL_PROPERTY
VdW
SciTegic.value.DoubleValue
0.491

@<SCITEGIC>MOL_PROPERTY
VdW6
SciTegic.value.DoubleValue
-6.572

@<SCITEGIC>MOL_PROPERTY
VdW12
SciTegic.value.DoubleValue
7.063

@<SCITEGIC>MOL_PROPERTY
Bond
SciTegic.value.DoubleValue
0.188

@<SCITEGIC>MOL_PROPERTY
Angle
SciTegic.value.DoubleValue
0.606

@<SCITEGIC>MOL_PROPERTY
Pdih
SciTegic.value.DoubleValue
1.519

@<SCITEGIC>MOL_PROPERTY
Idih
SciTegic.value.DoubleValue
0.000

@<SCITEGIC>MOL_PROPERTY
Tether
SciTegic.value.DoubleValue
0.000

@<TRIPOS>MOLECULE
guest-s12_vm2.mol2 : vm2 ligand conformer 18
          26          25           1
SMALL
USER_CHARGES
 
@<TRIPOS>ATOM
       1    N1      19.567934   18.575849   26.454212 N.4        1 MOL1        -0.4857
       2    H1      20.045629   17.661589   26.474635 H          1 MOL1         0.3650
       3    H2      18.720879   18.446505   27.030191 H          1 MOL1         0.3650
       4    C1      19.166307   18.927156   25.031369 C.3        1 MOL1         0.0209
       5    H3      18.701296   19.916051   25.047240 H          1 MOL1         0.0967
       6    H4      18.410377   18.202041   24.719212 H          1 MOL1         0.0967
       7    C2      20.326741   18.909451   24.015619 C.3        1 MOL1        -0.1378
       8    H5      21.079781   19.655807   24.299713 H          1 MOL1         0.0993
       9    H6      20.819174   17.928368   24.042273 H          1 MOL1         0.0993
      10    C3      19.826496   19.200909   22.583362 C.3        1 MOL1        -0.1338
      11    H7      19.332084   20.182030   22.561177 H          1 MOL1         0.0993
      12    H8      19.068270   18.455341   22.309626 H          1 MOL1         0.0993
      13    C4      20.982720   19.180391   21.554455 C.3        1 MOL1        -0.1338
      14    H9      21.765211   19.879937   21.879670 H          1 MOL1         0.0993
      15    H10     21.446683   18.184498   21.537684 H          1 MOL1         0.0993
      16    C5      20.541544   19.568817   20.122349 C.3        1 MOL1        -0.1313
      17    H11     21.433781   19.632680   19.483819 H          1 MOL1         0.0993
      18    H12     20.097138   20.573938   20.129922 H          1 MOL1         0.0993
      19    C6      19.548633   18.566115   19.491317 C.3        1 MOL1        -0.2328
      20    H13     18.590709   18.556063   20.025791 H          1 MOL1         0.1004
      21    H14     19.957717   17.547489   19.498330 H          1 MOL1         0.1004
      22    H15     19.340668   18.836621   18.448002 H          1 MOL1         0.1004
      23    C7      20.447624   19.661312   27.064317 C.3        1 MOL1        -0.0781
      24    H16     19.909559   20.611571   27.045966 H          1 MOL1         0.0978
      25    H17     20.684001   19.391418   28.096003 H          1 MOL1         0.0978
      26    H18     21.370370   19.746360   26.486948 H          1 MOL1         0.0978
@<TRIPOS>BOND
    1     1     2    1
    2     1     3    1
    3     1     4    1
    4     4     5    1
    5     4     6    1
    6     4     7    1
    7     7     8    1
    8     7     9    1
    9     7    10    1
   10    10    11    1
   11    10    12    1
   12    10    13    1
   13    13    14    1
   14    13    15    1
   15    13    16    1
   16    16    17    1
   17    16    18    1
   18    16    19    1
   19    19    20    1
   20    19    21    1
   21    19    22    1
   22     1    23    1
   23    23    24    1
   24    23    25    1
   25    23    26    1
@<TRIPOS>SUBSTRUCTURE
       1 MOL1            1 RESIDUE      1      MOL     
@<SCITEGIC>MOL_PROPERTY
VM2 Rank
SciTegic.value.IntegerValue
18

@<SCITEGIC>MOL_PROPERTY
Conf_Id
SciTegic.value.IntegerValue
1786

@<SCITEGIC>MOL_PROPERTY
Probability
SciTegic.value.DoubleValue
1.50

@<SCITEGIC>MOL_PROPERTY
Sum Probability
SciTegic.value.DoubleValue
48.47

@<SCITEGIC>MOL_PROPERTY
Delta G
SciTegic.value.DoubleValue
0.903

@<SCITEGIC>MOL_PROPERTY
G
SciTegic.value.DoubleValue
76.369

@<SCITEGIC>MOL_PROPERTY
E
SciTegic.value.DoubleValue
43.926

@<SCITEGIC>MOL_PROPERTY
-TS
SciTegic.value.DoubleValue
32.443

@<SCITEGIC>MOL_PROPERTY
U+W
SciTegic.value.DoubleValue
22.464

@<SCITEGIC>MOL_PROPERTY
U
SciTegic.value.DoubleValue
71.429

@<SCITEGIC>MOL_PROPERTY
W
SciTegic.value.DoubleValue
-48.965

@<SCITEGIC>MOL_PROPERTY
W(PB)
SciTegic.value.DoubleValue
-51.238

@<SCITEGIC>MOL_PROPERTY
W(SA)
SciTegic.value.DoubleValue
2.272

@<SCITEGIC>MOL_PROPERTY
Valence
SciTegic.value.DoubleValue
2.501

@<SCITEGIC>MOL_PROPERTY
Coulomb
SciTegic.value.DoubleValue
68.364

@<SCITEGIC>MOL_PROPERTY
VdW
SciTegic.value.DoubleValue
0.564

@<SCITEGIC>MOL_PROPERTY
VdW6
SciTegic.value.DoubleValue
-6.585

@<SCITEGIC>MOL_PROPERTY
VdW12
SciTegic.value.DoubleValue
7.150

@<SCITEGIC>MOL_PROPERTY
Bond
SciTegic.value.DoubleValue
0.197

@<SCITEGIC>MOL_PROPERTY
Angle
SciTegic.value.DoubleValue
0.716

@<SCITEGIC>MOL_PROPERTY
Pdih
SciTegic.value.DoubleValue
1.587

@<SCITEGIC>MOL_PROPERTY
Idih
SciTegic.value.DoubleValue
0.000

@<SCITEGIC>MOL_PROPERTY
Tether
SciTegic.value.DoubleValue
0.000

@<TRIPOS>MOLECULE
guest-s12_vm2.mol2 : vm2 ligand conformer 19
          26          25           1
SMALL
USER_CHARGES
 
@<TRIPOS>ATOM
       1    N1      19.477367   19.168437   26.494103 N.4        1 MOL1        -0.4857
       2    H1      19.086715   18.220351   26.608148 H          1 MOL1         0.3650
       3    H2      18.899131   19.769535   27.102630 H          1 MOL1         0.3650
       4    C1      19.339156   19.623535   25.050855 C.3        1 MOL1         0.0209
       5    H3      19.798627   20.611320   24.963906 H          1 MOL1         0.0967
       6    H4      18.270879   19.727161   24.844181 H          1 MOL1         0.0967
       7    C2      19.958760   18.663726   24.014755 C.3        1 MOL1        -0.1378
       8    H5      21.038537   18.574100   24.190609 H          1 MOL1         0.0993
       9    H6      19.527064   17.662275   24.142888 H          1 MOL1         0.0993
      10    C3      19.711761   19.156593   22.571633 C.3        1 MOL1        -0.1338
      11    H7      20.136618   20.162863   22.459127 H          1 MOL1         0.0993
      12    H8      18.630815   19.244828   22.394756 H          1 MOL1         0.0993
      13    C4      20.331605   18.201410   21.523147 C.3        1 MOL1        -0.1338
      14    H9      21.420058   18.151063   21.664861 H          1 MOL1         0.0993
      15    H10     19.950803   17.184942   21.694049 H          1 MOL1         0.0993
      16    C5      20.019216   18.603227   20.061168 C.3        1 MOL1        -0.1313
      17    H11     18.931330   18.632824   19.908026 H          1 MOL1         0.0993
      18    H12     20.402177   17.820788   19.391082 H          1 MOL1         0.0993
      19    C6      20.639196   19.958162   19.649757 C.3        1 MOL1        -0.2328
      20    H13     20.197216   20.791100   20.210340 H          1 MOL1         0.1004
      21    H14     20.466972   20.151171   18.582977 H          1 MOL1         0.1004
      22    H15     21.723492   19.964728   19.820800 H          1 MOL1         0.1004
      23    C7      20.930938   19.214911   26.951582 C.3        1 MOL1        -0.0781
      24    H16     20.984634   18.917457   28.001216 H          1 MOL1         0.0978
      25    H17     21.523486   18.527304   26.344842 H          1 MOL1         0.0978
      26    H18     21.310756   20.232480   26.836968 H          1 MOL1         0.0978
@<TRIPOS>BOND
    1     1     2    1
    2     1     3    1
    3     1     4    1
    4     4     5    1
    5     4     6    1
    6     4     7    1
    7     7     8    1
    8     7     9    1
    9     7    10    1
   10    10    11    1
   11    10    12    1
   12    10    13    1
   13    13    14    1
   14    13    15    1
   15    13    16    1
   16    16    17    1
   17    16    18    1
   18    16    19    1
   19    19    20    1
   20    19    21    1
   21    19    22    1
   22     1    23    1
   23    23    24    1
   24    23    25    1
   25    23    26    1
@<TRIPOS>SUBSTRUCTURE
       1 MOL1            1 RESIDUE      1      MOL     
@<SCITEGIC>MOL_PROPERTY
VM2 Rank
SciTegic.value.IntegerValue
19

@<SCITEGIC>MOL_PROPERTY
Conf_Id
SciTegic.value.IntegerValue
490

@<SCITEGIC>MOL_PROPERTY
Probability
SciTegic.value.DoubleValue
1.44

@<SCITEGIC>MOL_PROPERTY
Sum Probability
SciTegic.value.DoubleValue
49.91

@<SCITEGIC>MOL_PROPERTY
Delta G
SciTegic.value.DoubleValue
0.928

@<SCITEGIC>MOL_PROPERTY
G
SciTegic.value.DoubleValue
76.394

@<SCITEGIC>MOL_PROPERTY
E
SciTegic.value.DoubleValue
43.951

@<SCITEGIC>MOL_PROPERTY
-TS
SciTegic.value.DoubleValue
32.443

@<SCITEGIC>MOL_PROPERTY
U+W
SciTegic.value.DoubleValue
22.489

@<SCITEGIC>MOL_PROPERTY
U
SciTegic.value.DoubleValue
71.422

@<SCITEGIC>MOL_PROPERTY
W
SciTegic.value.DoubleValue
-48.933

@<SCITEGIC>MOL_PROPERTY
W(PB)
SciTegic.value.DoubleValue
-51.232

@<SCITEGIC>MOL_PROPERTY
W(SA)
SciTegic.value.DoubleValue
2.299

@<SCITEGIC>MOL_PROPERTY
Valence
SciTegic.value.DoubleValue
2.502

@<SCITEGIC>MOL_PROPERTY
Coulomb
SciTegic.value.DoubleValue
68.359

@<SCITEGIC>MOL_PROPERTY
VdW
SciTegic.value.DoubleValue
0.561

@<SCITEGIC>MOL_PROPERTY
VdW6
SciTegic.value.DoubleValue
-6.587

@<SCITEGIC>MOL_PROPERTY
VdW12
SciTegic.value.DoubleValue
7.149

@<SCITEGIC>MOL_PROPERTY
Bond
SciTegic.value.DoubleValue
0.197

@<SCITEGIC>MOL_PROPERTY
Angle
SciTegic.value.DoubleValue
0.717

@<SCITEGIC>MOL_PROPERTY
Pdih
SciTegic.value.DoubleValue
1.587

@<SCITEGIC>MOL_PROPERTY
Idih
SciTegic.value.DoubleValue
0.000

@<SCITEGIC>MOL_PROPERTY
Tether
SciTegic.value.DoubleValue
0.000

@<TRIPOS>MOLECULE
guest-s12_vm2.mol2 : vm2 ligand conformer 20
          26          25           1
SMALL
USER_CHARGES
 
@<TRIPOS>ATOM
       1    N1      20.367550   19.260496   26.525607 N.4        1 MOL1        -0.4857
       2    H1      20.766728   19.962664   27.168723 H          1 MOL1         0.3650
       3    H2      20.934723   18.411441   26.673597 H          1 MOL1         0.3650
       4    C1      20.510523   19.744617   25.092301 C.3        1 MOL1         0.0209
       5    H3      21.546912   20.065698   24.960108 H          1 MOL1         0.0967
       6    H4      19.866254   20.618358   24.966266 H          1 MOL1         0.0967
       7    C2      20.173993   18.686001   24.022380 C.3        1 MOL1        -0.1378
       8    H5      20.790976   17.792869   24.187694 H          1 MOL1         0.0993
       9    H6      19.125644   18.376582   24.122868 H          1 MOL1         0.0993
      10    C3      20.415586   19.229269   22.596543 C.3        1 MOL1        -0.1338
      11    H7      21.465454   19.537487   22.495090 H          1 MOL1         0.0993
      12    H8      19.803272   20.128456   22.447294 H          1 MOL1         0.0993
      13    C4      20.078594   18.175268   21.514222 C.3        1 MOL1        -0.1338
      14    H9      20.645860   17.256676   21.718729 H          1 MOL1         0.0993
      15    H10     19.016118   17.902886   21.579791 H          1 MOL1         0.0993
      16    C5      20.403957   18.642863   20.074804 C.3        1 MOL1        -0.1313
      17    H11     20.236450   17.803611   19.385251 H          1 MOL1         0.0993
      18    H12     21.470932   18.894806   19.997929 H          1 MOL1         0.0993
      19    C6      19.551020   19.845815   19.611241 C.3        1 MOL1        -0.2328
      20    H13     18.478919   19.629892   19.705967 H          1 MOL1         0.1004
      21    H14     19.754461   20.077570   18.557755 H          1 MOL1         0.1004
      22    H15     19.773533   20.747322   20.195328 H          1 MOL1         0.1004
      23    C7      18.906777   19.005671   26.879903 C.3        1 MOL1        -0.0781
      24    H16     18.511175   18.215895   26.238184 H          1 MOL1         0.0978
      25    H17     18.841682   18.695942   27.925332 H          1 MOL1         0.0978
      26    H18     18.336019   19.924960   26.731626 H          1 MOL1         0.0978
@<TRIPOS>BOND
    1     1     2    1
    2     1     3    1
    3     1     4    1
    4     4     5    1
    5     4     6    1
    6     4     7    1
    7     7     8    1
    8     7     9    1
    9     7    10    1
   10    10    11    1
   11    10    12    1
   12    10    13    1
   13    13    14    1
   14    13    15    1
   15    13    16    1
   16    16    17    1
   17    16    18    1
   18    16    19    1
   19    19    20    1
   20    19    21    1
   21    19    22    1
   22     1    23    1
   23    23    24    1
   24    23    25    1
   25    23    26    1
@<TRIPOS>SUBSTRUCTURE
       1 MOL1            1 RESIDUE      1      MOL     
@<SCITEGIC>MOL_PROPERTY
VM2 Rank
SciTegic.value.IntegerValue
20

@<SCITEGIC>MOL_PROPERTY
Conf_Id
SciTegic.value.IntegerValue
730

@<SCITEGIC>MOL_PROPERTY
Probability
SciTegic.value.DoubleValue
1.44

@<SCITEGIC>MOL_PROPERTY
Sum Probability
SciTegic.value.DoubleValue
51.35

@<SCITEGIC>MOL_PROPERTY
Delta G
SciTegic.value.DoubleValue
0.930

@<SCITEGIC>MOL_PROPERTY
G
SciTegic.value.DoubleValue
76.396

@<SCITEGIC>MOL_PROPERTY
E
SciTegic.value.DoubleValue
43.953

@<SCITEGIC>MOL_PROPERTY
-TS
SciTegic.value.DoubleValue
32.443

@<SCITEGIC>MOL_PROPERTY
U+W
SciTegic.value.DoubleValue
22.492

@<SCITEGIC>MOL_PROPERTY
U
SciTegic.value.DoubleValue
71.422

@<SCITEGIC>MOL_PROPERTY
W
SciTegic.value.DoubleValue
-48.930

@<SCITEGIC>MOL_PROPERTY
W(PB)
SciTegic.value.DoubleValue
-51.223

@<SCITEGIC>MOL_PROPERTY
W(SA)
SciTegic.value.DoubleValue
2.293

@<SCITEGIC>MOL_PROPERTY
Valence
SciTegic.value.DoubleValue
2.501

@<SCITEGIC>MOL_PROPERTY
Coulomb
SciTegic.value.DoubleValue
68.359

@<SCITEGIC>MOL_PROPERTY
VdW
SciTegic.value.DoubleValue
0.562

@<SCITEGIC>MOL_PROPERTY
VdW6
SciTegic.value.DoubleValue
-6.587

@<SCITEGIC>MOL_PROPERTY
VdW12
SciTegic.value.DoubleValue
7.149

@<SCITEGIC>MOL_PROPERTY
Bond
SciTegic.value.DoubleValue
0.197

@<SCITEGIC>MOL_PROPERTY
Angle
SciTegic.value.DoubleValue
0.717

@<SCITEGIC>MOL_PROPERTY
Pdih
SciTegic.value.DoubleValue
1.587

@<SCITEGIC>MOL_PROPERTY
Idih
SciTegic.value.DoubleValue
0.000

@<SCITEGIC>MOL_PROPERTY
Tether
SciTegic.value.DoubleValue
0.000

@<TRIPOS>MOLECULE
guest-s12_vm2.mol2 : vm2 ligand conformer 21
          26          25           1
SMALL
USER_CHARGES
 
@<TRIPOS>ATOM
       1    N1      20.401847   18.661128   26.483784 N.4        1 MOL1        -0.4857
       2    H1      21.215098   18.701487   27.118590 H          1 MOL1         0.3650
       3    H2      20.118454   17.669096   26.477311 H          1 MOL1         0.3650
       4    C1      20.822886   19.096400   25.090061 C.3        1 MOL1         0.0209
       5    H3      21.729696   18.541197   24.836863 H          1 MOL1         0.0967
       6    H4      21.076239   20.158712   25.131315 H          1 MOL1         0.0967
       7    C2      19.764022   18.851808   23.995686 C.3        1 MOL1        -0.1378
       8    H5      19.479416   17.791279   23.994794 H          1 MOL1         0.0993
       9    H6      18.857664   19.428497   24.221007 H          1 MOL1         0.0993
      10    C3      20.294074   19.248642   22.599936 C.3        1 MOL1        -0.1338
      11    H7      21.204616   18.673704   22.385298 H          1 MOL1         0.0993
      12    H8      20.580285   20.309579   22.605433 H          1 MOL1         0.0993
      13    C4      19.240812   19.002247   21.492753 C.3        1 MOL1        -0.1338
      14    H9      18.990080   17.933275   21.450607 H          1 MOL1         0.0993
      15    H10     18.312254   19.526814   21.757392 H          1 MOL1         0.0993
      16    C5      19.693532   19.482162   20.092337 C.3        1 MOL1        -0.1313
      17    H11     19.923935   20.556285   20.123879 H          1 MOL1         0.0993
      18    H12     18.853749   19.368958   19.392455 H          1 MOL1         0.0993
      19    C6      20.910336   18.705454   19.539524 C.3        1 MOL1        -0.2328
      20    H13     21.810676   18.885334   20.139869 H          1 MOL1         0.1004
      21    H14     21.131905   19.019990   18.511464 H          1 MOL1         0.1004
      22    H15     20.716120   17.625145   19.525038 H          1 MOL1         0.1004
      23    C7      19.280491   19.542159   27.022918 C.3        1 MOL1        -0.0781
      24    H16     19.615456   20.581624   27.035458 H          1 MOL1         0.0978
      25    H17     18.402360   19.443168   26.381720 H          1 MOL1         0.0978
      26    H18     19.031803   19.222757   28.037427 H          1 MOL1         0.0978
@<TRIPOS>BOND
    1     1     2    1
    2     1     3    1
    3     1     4    1
    4     4     5    1
    5     4     6    1
    6     4     7    1
    7     7     8    1
    8     7     9    1
    9     7    10    1
   10    10    11    1
   11    10    12    1
   12    10    13    1
   13    13    14    1
   14    13    15    1
   15    13    16    1
   16    16    17    1
   17    16    18    1
   18    16    19    1
   19    19    20    1
   20    19    21    1
   21    19    22    1
   22     1    23    1
   23    23    24    1
   24    23    25    1
   25    23    26    1
@<TRIPOS>SUBSTRUCTURE
       1 MOL1            1 RESIDUE      1      MOL     
@<SCITEGIC>MOL_PROPERTY
VM2 Rank
SciTegic.value.IntegerValue
21

@<SCITEGIC>MOL_PROPERTY
Conf_Id
SciTegic.value.IntegerValue
1118

@<SCITEGIC>MOL_PROPERTY
Probability
SciTegic.value.DoubleValue
1.38

@<SCITEGIC>MOL_PROPERTY
Sum Probability
SciTegic.value.DoubleValue
52.73

@<SCITEGIC>MOL_PROPERTY
Delta G
SciTegic.value.DoubleValue
0.952

@<SCITEGIC>MOL_PROPERTY
G
SciTegic.value.DoubleValue
76.418

@<SCITEGIC>MOL_PROPERTY
E
SciTegic.value.DoubleValue
43.975

@<SCITEGIC>MOL_PROPERTY
-TS
SciTegic.value.DoubleValue
32.443

@<SCITEGIC>MOL_PROPERTY
U+W
SciTegic.value.DoubleValue
22.513

@<SCITEGIC>MOL_PROPERTY
U
SciTegic.value.DoubleValue
71.429

@<SCITEGIC>MOL_PROPERTY
W
SciTegic.value.DoubleValue
-48.917

@<SCITEGIC>MOL_PROPERTY
W(PB)
SciTegic.value.DoubleValue
-51.189

@<SCITEGIC>MOL_PROPERTY
W(SA)
SciTegic.value.DoubleValue
2.272

@<SCITEGIC>MOL_PROPERTY
Valence
SciTegic.value.DoubleValue
2.501

@<SCITEGIC>MOL_PROPERTY
Coulomb
SciTegic.value.DoubleValue
68.364

@<SCITEGIC>MOL_PROPERTY
VdW
SciTegic.value.DoubleValue
0.564

@<SCITEGIC>MOL_PROPERTY
VdW6
SciTegic.value.DoubleValue
-6.585

@<SCITEGIC>MOL_PROPERTY
VdW12
SciTegic.value.DoubleValue
7.150

@<SCITEGIC>MOL_PROPERTY
Bond
SciTegic.value.DoubleValue
0.197

@<SCITEGIC>MOL_PROPERTY
Angle
SciTegic.value.DoubleValue
0.716

@<SCITEGIC>MOL_PROPERTY
Pdih
SciTegic.value.DoubleValue
1.587

@<SCITEGIC>MOL_PROPERTY
Idih
SciTegic.value.DoubleValue
0.000

@<SCITEGIC>MOL_PROPERTY
Tether
SciTegic.value.DoubleValue
0.000

@<TRIPOS>MOLECULE
guest-s12_vm2.mol2 : vm2 ligand conformer 22
          26          25           1
SMALL
USER_CHARGES
 
@<TRIPOS>ATOM
       1    N1      20.041554   18.797256   26.429991 N.4        1 MOL1        -0.4857
       2    H1      20.450377   17.850098   26.415397 H          1 MOL1         0.3650
       3    H2      19.459482   18.822708   27.282349 H          1 MOL1         0.3650
       4    C1      19.162937   19.009241   25.208341 C.3        1 MOL1         0.0209
       5    H3      18.782922   20.033421   25.240548 H          1 MOL1         0.0967
       6    H4      18.312188   18.329025   25.298830 H          1 MOL1         0.0967
       7    C2      19.867465   18.753410   23.860436 C.3        1 MOL1        -0.1378
       8    H5      20.705213   19.452381   23.750389 H          1 MOL1         0.0993
       9    H6      20.288421   17.739354   23.856868 H          1 MOL1         0.0993
      10    C3      18.886588   18.914184   22.675033 C.3        1 MOL1        -0.1338
      11    H7      18.501664   19.943159   22.649767 H          1 MOL1         0.0993
      12    H8      18.016307   18.264128   22.841638 H          1 MOL1         0.0993
      13    C4      19.508790   18.558775   21.301958 C.3        1 MOL1        -0.1338
      14    H9      19.878073   17.524084   21.321435 H          1 MOL1         0.0993
      15    H10     18.715096   18.587643   20.542577 H          1 MOL1         0.0993
      16    C5      20.649569   19.511855   20.872444 C.3        1 MOL1        -0.1313
      17    H11     21.489706   19.439829   21.575791 H          1 MOL1         0.0993
      18    H12     20.295980   20.551951   20.903552 H          1 MOL1         0.0993
      19    C6      21.158058   19.187163   19.451520 C.3        1 MOL1        -0.2328
      20    H13     20.354057   19.288854   18.710957 H          1 MOL1         0.1004
      21    H14     21.546252   18.161773   19.395984 H          1 MOL1         0.1004
      22    H15     21.968187   19.869919   19.164191 H          1 MOL1         0.1004
      23    C7      21.133040   19.858117   26.517276 C.3        1 MOL1        -0.0781
      24    H16     20.670454   20.846971   26.549336 H          1 MOL1         0.0978
      25    H17     21.717630   19.695050   27.425438 H          1 MOL1         0.0978
      26    H18     21.783511   19.781017   25.643800 H          1 MOL1         0.0978
@<TRIPOS>BOND
    1     1     2    1
    2     1     3    1
    3     1     4    1
    4     4     5    1
    5     4     6    1
    6     4     7    1
    7     7     8    1
    8     7     9    1
    9     7    10    1
   10    10    11    1
   11    10    12    1
   12    10    13    1
   13    13    14    1
   14    13    15    1
   15    13    16    1
   16    16    17    1
   17    16    18    1
   18    16    19    1
   19    19    20    1
   20    19    21    1
   21    19    22    1
   22     1    23    1
   23    23    24    1
   24    23    25    1
   25    23    26    1
@<TRIPOS>SUBSTRUCTURE
       1 MOL1            1 RESIDUE      1      MOL     
@<SCITEGIC>MOL_PROPERTY
VM2 Rank
SciTegic.value.IntegerValue
22

@<SCITEGIC>MOL_PROPERTY
Conf_Id
SciTegic.value.IntegerValue
1597

@<SCITEGIC>MOL_PROPERTY
Probability
SciTegic.value.DoubleValue
1.32

@<SCITEGIC>MOL_PROPERTY
Sum Probability
SciTegic.value.DoubleValue
54.05

@<SCITEGIC>MOL_PROPERTY
Delta G
SciTegic.value.DoubleValue
0.981

@<SCITEGIC>MOL_PROPERTY
G
SciTegic.value.DoubleValue
76.447

@<SCITEGIC>MOL_PROPERTY
E
SciTegic.value.DoubleValue
44.015

@<SCITEGIC>MOL_PROPERTY
-TS
SciTegic.value.DoubleValue
32.432

@<SCITEGIC>MOL_PROPERTY
U+W
SciTegic.value.DoubleValue
22.553

@<SCITEGIC>MOL_PROPERTY
U
SciTegic.value.DoubleValue
71.707

@<SCITEGIC>MOL_PROPERTY
W
SciTegic.value.DoubleValue
-49.154

@<SCITEGIC>MOL_PROPERTY
W(PB)
SciTegic.value.DoubleValue
-51.437

@<SCITEGIC>MOL_PROPERTY
W(SA)
SciTegic.value.DoubleValue
2.283

@<SCITEGIC>MOL_PROPERTY
Valence
SciTegic.value.DoubleValue
2.540

@<SCITEGIC>MOL_PROPERTY
Coulomb
SciTegic.value.DoubleValue
68.632

@<SCITEGIC>MOL_PROPERTY
VdW
SciTegic.value.DoubleValue
0.536

@<SCITEGIC>MOL_PROPERTY
VdW6
SciTegic.value.DoubleValue
-6.649

@<SCITEGIC>MOL_PROPERTY
VdW12
SciTegic.value.DoubleValue
7.184

@<SCITEGIC>MOL_PROPERTY
Bond
SciTegic.value.DoubleValue
0.201

@<SCITEGIC>MOL_PROPERTY
Angle
SciTegic.value.DoubleValue
0.741

@<SCITEGIC>MOL_PROPERTY
Pdih
SciTegic.value.DoubleValue
1.598

@<SCITEGIC>MOL_PROPERTY
Idih
SciTegic.value.DoubleValue
0.000

@<SCITEGIC>MOL_PROPERTY
Tether
SciTegic.value.DoubleValue
0.000

@<TRIPOS>MOLECULE
guest-s12_vm2.mol2 : vm2 ligand conformer 23
          26          25           1
SMALL
USER_CHARGES
 
@<TRIPOS>ATOM
       1    N1      19.380721   18.769589   26.319696 N.4        1 MOL1        -0.4857
       2    H1      18.841772   17.931253   26.052971 H          1 MOL1         0.3650
       3    H2      18.851829   19.188485   27.101220 H          1 MOL1         0.3650
       4    C1      19.435704   19.750160   25.160056 C.3        1 MOL1         0.0209
       5    H3      20.044625   20.603330   25.469412 H          1 MOL1         0.0967
       6    H4      18.416739   20.105846   24.987232 H          1 MOL1         0.0967
       7    C2      19.989095   19.159341   23.847303 C.3        1 MOL1        -0.1378
       8    H5      21.024522   18.827643   23.997442 H          1 MOL1         0.0993
       9    H6      19.400381   18.273099   23.579917 H          1 MOL1         0.0993
      10    C3      19.941179   20.196967   22.700943 C.3        1 MOL1        -0.1338
      11    H7      20.465156   21.107793   23.022796 H          1 MOL1         0.0993
      12    H8      18.899746   20.491869   22.511134 H          1 MOL1         0.0993
      13    C4      20.587487   19.698026   21.384863 C.3        1 MOL1        -0.1338
      14    H9      20.612029   20.533026   20.670990 H          1 MOL1         0.0993
      15    H10     21.634560   19.421292   21.570323 H          1 MOL1         0.0993
      16    C5      19.839685   18.507137   20.739351 C.3        1 MOL1        -0.1313
      17    H11     18.780295   18.764814   20.601205 H          1 MOL1         0.0993
      18    H12     19.871023   17.633776   21.404181 H          1 MOL1         0.0993
      19    C6      20.453571   18.120511   19.376750 C.3        1 MOL1        -0.2328
      20    H13     21.506148   17.828615   19.486661 H          1 MOL1         0.1004
      21    H14     20.403204   18.957789   18.668497 H          1 MOL1         0.1004
      22    H15     19.913576   17.273179   18.934644 H          1 MOL1         0.1004
      23    C7      20.780560   18.388269   26.788039 C.3        1 MOL1        -0.0781
      24    H16     21.319491   19.291991   27.080754 H          1 MOL1         0.0978
      25    H17     20.699580   17.713990   27.643538 H          1 MOL1         0.0978
      26    H18     21.310248   17.887418   25.975250 H          1 MOL1         0.0978
@<TRIPOS>BOND
    1     1     2    1
    2     1     3    1
    3     1     4    1
    4     4     5    1
    5     4     6    1
    6     4     7    1
    7     7     8    1
    8     7     9    1
    9     7    10    1
   10    10    11    1
   11    10    12    1
   12    10    13    1
   13    13    14    1
   14    13    15    1
   15    13    16    1
   16    16    17    1
   17    16    18    1
   18    16    19    1
   19    19    20    1
   20    19    21    1
   21    19    22    1
   22     1    23    1
   23    23    24    1
   24    23    25    1
   25    23    26    1
@<TRIPOS>SUBSTRUCTURE
       1 MOL1            1 RESIDUE      1      MOL     
@<SCITEGIC>MOL_PROPERTY
VM2 Rank
SciTegic.value.IntegerValue
23

@<SCITEGIC>MOL_PROPERTY
Conf_Id
SciTegic.value.IntegerValue
1769

@<SCITEGIC>MOL_PROPERTY
Probability
SciTegic.value.DoubleValue
1.31

@<SCITEGIC>MOL_PROPERTY
Sum Probability
SciTegic.value.DoubleValue
55.36

@<SCITEGIC>MOL_PROPERTY
Delta G
SciTegic.value.DoubleValue
0.986

@<SCITEGIC>MOL_PROPERTY
G
SciTegic.value.DoubleValue
76.452

@<SCITEGIC>MOL_PROPERTY
E
SciTegic.value.DoubleValue
44.019

@<SCITEGIC>MOL_PROPERTY
-TS
SciTegic.value.DoubleValue
32.433

@<SCITEGIC>MOL_PROPERTY
U+W
SciTegic.value.DoubleValue
22.558

@<SCITEGIC>MOL_PROPERTY
U
SciTegic.value.DoubleValue
71.722

@<SCITEGIC>MOL_PROPERTY
W
SciTegic.value.DoubleValue
-49.165

@<SCITEGIC>MOL_PROPERTY
W(PB)
SciTegic.value.DoubleValue
-51.479

@<SCITEGIC>MOL_PROPERTY
W(SA)
SciTegic.value.DoubleValue
2.314

@<SCITEGIC>MOL_PROPERTY
Valence
SciTegic.value.DoubleValue
2.540

@<SCITEGIC>MOL_PROPERTY
Coulomb
SciTegic.value.DoubleValue
68.643

@<SCITEGIC>MOL_PROPERTY
VdW
SciTegic.value.DoubleValue
0.540

@<SCITEGIC>MOL_PROPERTY
VdW6
SciTegic.value.DoubleValue
-6.633

@<SCITEGIC>MOL_PROPERTY
VdW12
SciTegic.value.DoubleValue
7.173

@<SCITEGIC>MOL_PROPERTY
Bond
SciTegic.value.DoubleValue
0.200

@<SCITEGIC>MOL_PROPERTY
Angle
SciTegic.value.DoubleValue
0.745

@<SCITEGIC>MOL_PROPERTY
Pdih
SciTegic.value.DoubleValue
1.595

@<SCITEGIC>MOL_PROPERTY
Idih
SciTegic.value.DoubleValue
0.000

@<SCITEGIC>MOL_PROPERTY
Tether
SciTegic.value.DoubleValue
0.000

@<TRIPOS>MOLECULE
guest-s12_vm2.mol2 : vm2 ligand conformer 24
          26          25           1
SMALL
USER_CHARGES
 
@<TRIPOS>ATOM
       1    N1      20.553291   18.885686   26.361337 N.4        1 MOL1        -0.4857
       2    H1      20.933544   19.394603   27.175211 H          1 MOL1         0.3650
       3    H2      21.263462   18.171095   26.139001 H          1 MOL1         0.3650
       4    C1      20.388949   19.844588   25.193940 C.3        1 MOL1         0.0209
       5    H3      21.328094   20.394150   25.090701 H          1 MOL1         0.0967
       6    H4      19.604523   20.559794   25.453828 H          1 MOL1         0.0967
       7    C2      20.055625   19.166034   23.849659 C.3        1 MOL1        -0.1378
       8    H5      20.823732   18.414043   23.630515 H          1 MOL1         0.0993
       9    H6      19.097202   18.637055   23.928922 H          1 MOL1         0.0993
      10    C3      19.980024   20.200897   22.702291 C.3        1 MOL1        -0.1338
      11    H7      20.954342   20.695171   22.584070 H          1 MOL1         0.0993
      12    H8      19.266671   20.989351   22.980166 H          1 MOL1         0.0993
      13    C4      19.537933   19.594269   21.347563 C.3        1 MOL1        -0.1338
      14    H9      18.554792   19.116852   21.460895 H          1 MOL1         0.0993
      15    H10     19.400838   20.413240   20.627887 H          1 MOL1         0.0993
      16    C5      20.547666   18.577069   20.764591 C.3        1 MOL1        -0.1313
      17    H11     20.641021   17.709876   21.431674 H          1 MOL1         0.0993
      18    H12     21.543265   19.037865   20.699476 H          1 MOL1         0.0993
      19    C6      20.118606   18.087273   19.364937 C.3        1 MOL1        -0.2328
      20    H13     20.053959   18.923102   18.656133 H          1 MOL1         0.1004
      21    H14     19.138353   17.594435   19.402605 H          1 MOL1         0.1004
      22    H15     20.843591   17.364962   18.967841 H          1 MOL1         0.1004
      23    C7      19.225906   18.234184   26.732682 C.3        1 MOL1        -0.0781
      24    H16     18.863204   17.644849   25.888181 H          1 MOL1         0.0978
      25    H17     19.377042   17.582968   27.596490 H          1 MOL1         0.0978
      26    H18     18.501066   19.012710   26.980368 H          1 MOL1         0.0978
@<TRIPOS>BOND
    1     1     2    1
    2     1     3    1
    3     1     4    1
    4     4     5    1
    5     4     6    1
    6     4     7    1
    7     7     8    1
    8     7     9    1
    9     7    10    1
   10    10    11    1
   11    10    12    1
   12    10    13    1
   13    13    14    1
   14    13    15    1
   15    13    16    1
   16    16    17    1
   17    16    18    1
   18    16    19    1
   19    19    20    1
   20    19    21    1
   21    19    22    1
   22     1    23    1
   23    23    24    1
   24    23    25    1
   25    23    26    1
@<TRIPOS>SUBSTRUCTURE
       1 MOL1            1 RESIDUE      1      MOL     
@<SCITEGIC>MOL_PROPERTY
VM2 Rank
SciTegic.value.IntegerValue
24

@<SCITEGIC>MOL_PROPERTY
Conf_Id
SciTegic.value.IntegerValue
1849

@<SCITEGIC>MOL_PROPERTY
Probability
SciTegic.value.DoubleValue
1.28

@<SCITEGIC>MOL_PROPERTY
Sum Probability
SciTegic.value.DoubleValue
56.64

@<SCITEGIC>MOL_PROPERTY
Delta G
SciTegic.value.DoubleValue
1.000

@<SCITEGIC>MOL_PROPERTY
G
SciTegic.value.DoubleValue
76.466

@<SCITEGIC>MOL_PROPERTY
E
SciTegic.value.DoubleValue
44.033

@<SCITEGIC>MOL_PROPERTY
-TS
SciTegic.value.DoubleValue
32.433

@<SCITEGIC>MOL_PROPERTY
U+W
SciTegic.value.DoubleValue
22.571

@<SCITEGIC>MOL_PROPERTY
U
SciTegic.value.DoubleValue
71.722

@<SCITEGIC>MOL_PROPERTY
W
SciTegic.value.DoubleValue
-49.151

@<SCITEGIC>MOL_PROPERTY
W(PB)
SciTegic.value.DoubleValue
-51.448

@<SCITEGIC>MOL_PROPERTY
W(SA)
SciTegic.value.DoubleValue
2.296

@<SCITEGIC>MOL_PROPERTY
Valence
SciTegic.value.DoubleValue
2.540

@<SCITEGIC>MOL_PROPERTY
Coulomb
SciTegic.value.DoubleValue
68.643

@<SCITEGIC>MOL_PROPERTY
VdW
SciTegic.value.DoubleValue
0.540

@<SCITEGIC>MOL_PROPERTY
VdW6
SciTegic.value.DoubleValue
-6.633

@<SCITEGIC>MOL_PROPERTY
VdW12
SciTegic.value.DoubleValue
7.173

@<SCITEGIC>MOL_PROPERTY
Bond
SciTegic.value.DoubleValue
0.200

@<SCITEGIC>MOL_PROPERTY
Angle
SciTegic.value.DoubleValue
0.745

@<SCITEGIC>MOL_PROPERTY
Pdih
SciTegic.value.DoubleValue
1.595

@<SCITEGIC>MOL_PROPERTY
Idih
SciTegic.value.DoubleValue
0.000

@<SCITEGIC>MOL_PROPERTY
Tether
SciTegic.value.DoubleValue
0.000

@<TRIPOS>MOLECULE
guest-s12_vm2.mol2 : vm2 ligand conformer 25
          26          25           1
SMALL
USER_CHARGES
 
@<TRIPOS>ATOM
       1    N1      19.896526   18.782376   26.424899 N.4        1 MOL1        -0.4857
       2    H1      20.400288   18.919206   27.315670 H          1 MOL1         0.3650
       3    H2      19.690296   17.772128   26.388541 H          1 MOL1         0.3650
       4    C1      20.797143   19.176886   25.266199 C.3        1 MOL1         0.0209
       5    H3      21.759669   18.682626   25.420816 H          1 MOL1         0.0967
       6    H4      20.958441   20.256577   25.317599 H          1 MOL1         0.0967
       7    C2      20.255146   18.793277   23.874169 C.3        1 MOL1        -0.1378
       8    H5      20.049674   17.715018   23.848437 H          1 MOL1         0.0993
       9    H6      19.302959   19.308792   23.700739 H          1 MOL1         0.0993
      10    C3      21.263632   19.157927   22.759207 C.3        1 MOL1        -0.1338
      11    H7      22.233735   18.696541   22.991028 H          1 MOL1         0.0993
      12    H8      21.432865   20.243709   22.753514 H          1 MOL1         0.0993
      13    C4      20.824079   18.693597   21.348540 C.3        1 MOL1        -0.1338
      14    H9      21.646666   18.888081   20.646422 H          1 MOL1         0.0993
      15    H10     20.671653   17.605434   21.349598 H          1 MOL1         0.0993
      16    C5      19.546817   19.398816   20.833288 C.3        1 MOL1        -0.1313
      17    H11     19.679315   20.488729   20.881492 H          1 MOL1         0.0993
      18    H12     18.691543   19.153121   21.476604 H          1 MOL1         0.0993
      19    C6      19.215428   18.987897   19.382653 C.3        1 MOL1        -0.2328
      20    H13     19.047792   17.905554   19.307558 H          1 MOL1         0.1004
      21    H14     20.032037   19.255524   18.699486 H          1 MOL1         0.1004
      22    H15     18.305980   19.494444   19.034321 H          1 MOL1         0.1004
      23    C7      18.609229   19.599223   26.428045 C.3        1 MOL1        -0.0781
      24    H16     18.050589   19.398070   25.511814 H          1 MOL1         0.0978
      25    H17     18.007828   19.314515   27.294274 H          1 MOL1         0.0978
      26    H18     18.858294   20.661081   26.485247 H          1 MOL1         0.0978
@<TRIPOS>BOND
    1     1     2    1
    2     1     3    1
    3     1     4    1
    4     4     5    1
    5     4     6    1
    6     4     7    1
    7     7     8    1
    8     7     9    1
    9     7    10    1
   10    10    11    1
   11    10    12    1
   12    10    13    1
   13    13    14    1
   14    13    15    1
   15    13    16    1
   16    16    17    1
   17    16    18    1
   18    16    19    1
   19    19    20    1
   20    19    21    1
   21    19    22    1
   22     1    23    1
   23    23    24    1
   24    23    25    1
   25    23    26    1
@<TRIPOS>SUBSTRUCTURE
       1 MOL1            1 RESIDUE      1      MOL     
@<SCITEGIC>MOL_PROPERTY
VM2 Rank
SciTegic.value.IntegerValue
25

@<SCITEGIC>MOL_PROPERTY
Conf_Id
SciTegic.value.IntegerValue
1336

@<SCITEGIC>MOL_PROPERTY
Probability
SciTegic.value.DoubleValue
1.23

@<SCITEGIC>MOL_PROPERTY
Sum Probability
SciTegic.value.DoubleValue
57.86

@<SCITEGIC>MOL_PROPERTY
Delta G
SciTegic.value.DoubleValue
1.024

@<SCITEGIC>MOL_PROPERTY
G
SciTegic.value.DoubleValue
76.490

@<SCITEGIC>MOL_PROPERTY
E
SciTegic.value.DoubleValue
44.058

@<SCITEGIC>MOL_PROPERTY
-TS
SciTegic.value.DoubleValue
32.432

@<SCITEGIC>MOL_PROPERTY
U+W
SciTegic.value.DoubleValue
22.596

@<SCITEGIC>MOL_PROPERTY
U
SciTegic.value.DoubleValue
71.707

@<SCITEGIC>MOL_PROPERTY
W
SciTegic.value.DoubleValue
-49.111

@<SCITEGIC>MOL_PROPERTY
W(PB)
SciTegic.value.DoubleValue
-51.411

@<SCITEGIC>MOL_PROPERTY
W(SA)
SciTegic.value.DoubleValue
2.301

@<SCITEGIC>MOL_PROPERTY
Valence
SciTegic.value.DoubleValue
2.540

@<SCITEGIC>MOL_PROPERTY
Coulomb
SciTegic.value.DoubleValue
68.632

@<SCITEGIC>MOL_PROPERTY
VdW
SciTegic.value.DoubleValue
0.535

@<SCITEGIC>MOL_PROPERTY
VdW6
SciTegic.value.DoubleValue
-6.648

@<SCITEGIC>MOL_PROPERTY
VdW12
SciTegic.value.DoubleValue
7.183

@<SCITEGIC>MOL_PROPERTY
Bond
SciTegic.value.DoubleValue
0.201

@<SCITEGIC>MOL_PROPERTY
Angle
SciTegic.value.DoubleValue
0.741

@<SCITEGIC>MOL_PROPERTY
Pdih
SciTegic.value.DoubleValue
1.598

@<SCITEGIC>MOL_PROPERTY
Idih
SciTegic.value.DoubleValue
0.000

@<SCITEGIC>MOL_PROPERTY
Tether
SciTegic.value.DoubleValue
0.000

@<TRIPOS>MOLECULE
guest-s12_vm2.mol2 : vm2 ligand conformer 26
          26          25           1
SMALL
USER_CHARGES
 
@<TRIPOS>ATOM
       1    N1      19.294140   18.852648   25.664568 N.4        1 MOL1        -0.4857
       2    H1      19.235510   17.822648   25.683910 H          1 MOL1         0.3650
       3    H2      18.631255   19.153817   24.934539 H          1 MOL1         0.3650
       4    C1      20.701048   19.288305   25.302861 C.3        1 MOL1         0.0209
       5    H3      21.366078   18.949526   26.101350 H          1 MOL1         0.0967
       6    H4      20.721347   20.380835   25.282638 H          1 MOL1         0.0967
       7    C2      21.200470   18.735169   23.953483 C.3        1 MOL1        -0.1378
       8    H5      22.254870   19.017238   23.832786 H          1 MOL1         0.0993
       9    H6      21.170552   17.637589   23.973125 H          1 MOL1         0.0993
      10    C3      20.386210   19.267210   22.750040 C.3        1 MOL1        -0.1338
      11    H7      20.400377   20.365982   22.756077 H          1 MOL1         0.0993
      12    H8      19.337932   18.959997   22.851958 H          1 MOL1         0.0993
      13    C4      20.949701   18.751077   21.403999 C.3        1 MOL1        -0.1338
      14    H9      22.016540   19.006230   21.339505 H          1 MOL1         0.0993
      15    H10     20.892494   17.654173   21.374261 H          1 MOL1         0.0993
      16    C5      20.229258   19.339637   20.166615 C.3        1 MOL1        -0.1313
      17    H11     20.756317   19.007561   19.261176 H          1 MOL1         0.0993
      18    H12     20.303219   20.436076   20.179794 H          1 MOL1         0.0993
      19    C6      18.745301   18.919853   20.060613 C.3        1 MOL1        -0.2328
      20    H13     18.309635   19.283635   19.121043 H          1 MOL1         0.1004
      21    H14     18.148531   19.334958   20.882100 H          1 MOL1         0.1004
      22    H15     18.641579   17.827164   20.077145 H          1 MOL1         0.1004
      23    C7      18.901872   19.436100   27.014821 C.3        1 MOL1        -0.0781
      24    H16     18.940979   20.526244   26.960039 H          1 MOL1         0.0978
      25    H17     17.887633   19.115259   27.262816 H          1 MOL1         0.0978
      26    H18     19.598372   19.078589   27.776406 H          1 MOL1         0.0978
@<TRIPOS>BOND
    1     1     2    1
    2     1     3    1
    3     1     4    1
    4     4     5    1
    5     4     6    1
    6     4     7    1
    7     7     8    1
    8     7     9    1
    9     7    10    1
   10    10    11    1
   11    10    12    1
   12    10    13    1
   13    13    14    1
   14    13    15    1
   15    13    16    1
   16    16    17    1
   17    16    18    1
   18    16    19    1
   19    19    20    1
   20    19    21    1
   21    19    22    1
   22     1    23    1
   23    23    24    1
   24    23    25    1
   25    23    26    1
@<TRIPOS>SUBSTRUCTURE
       1 MOL1            1 RESIDUE      1      MOL     
@<SCITEGIC>MOL_PROPERTY
VM2 Rank
SciTegic.value.IntegerValue
26

@<SCITEGIC>MOL_PROPERTY
Conf_Id
SciTegic.value.IntegerValue
1239

@<SCITEGIC>MOL_PROPERTY
Probability
SciTegic.value.DoubleValue
1.13

@<SCITEGIC>MOL_PROPERTY
Sum Probability
SciTegic.value.DoubleValue
58.99

@<SCITEGIC>MOL_PROPERTY
Delta G
SciTegic.value.DoubleValue
1.073

@<SCITEGIC>MOL_PROPERTY
G
SciTegic.value.DoubleValue
76.539

@<SCITEGIC>MOL_PROPERTY
E
SciTegic.value.DoubleValue
44.179

@<SCITEGIC>MOL_PROPERTY
-TS
SciTegic.value.DoubleValue
32.360

@<SCITEGIC>MOL_PROPERTY
U+W
SciTegic.value.DoubleValue
22.717

@<SCITEGIC>MOL_PROPERTY
U
SciTegic.value.DoubleValue
71.970

@<SCITEGIC>MOL_PROPERTY
W
SciTegic.value.DoubleValue
-49.253

@<SCITEGIC>MOL_PROPERTY
W(PB)
SciTegic.value.DoubleValue
-51.560

@<SCITEGIC>MOL_PROPERTY
W(SA)
SciTegic.value.DoubleValue
2.307

@<SCITEGIC>MOL_PROPERTY
Valence
SciTegic.value.DoubleValue
2.341

@<SCITEGIC>MOL_PROPERTY
Coulomb
SciTegic.value.DoubleValue
69.301

@<SCITEGIC>MOL_PROPERTY
VdW
SciTegic.value.DoubleValue
0.327

@<SCITEGIC>MOL_PROPERTY
VdW6
SciTegic.value.DoubleValue
-6.486

@<SCITEGIC>MOL_PROPERTY
VdW12
SciTegic.value.DoubleValue
6.813

@<SCITEGIC>MOL_PROPERTY
Bond
SciTegic.value.DoubleValue
0.179

@<SCITEGIC>MOL_PROPERTY
Angle
SciTegic.value.DoubleValue
0.655

@<SCITEGIC>MOL_PROPERTY
Pdih
SciTegic.value.DoubleValue
1.507

@<SCITEGIC>MOL_PROPERTY
Idih
SciTegic.value.DoubleValue
0.000

@<SCITEGIC>MOL_PROPERTY
Tether
SciTegic.value.DoubleValue
0.000

@<TRIPOS>MOLECULE
guest-s12_vm2.mol2 : vm2 ligand conformer 27
          26          25           1
SMALL
USER_CHARGES
 
@<TRIPOS>ATOM
       1    N1      20.357014   19.588544   25.807907 N.4        1 MOL1        -0.4857
       2    H1      20.505564   20.350413   25.129211 H          1 MOL1         0.3650
       3    H2      21.292552   19.192363   25.988230 H          1 MOL1         0.3650
       4    C1      19.448348   18.530329   25.212597 C.3        1 MOL1         0.0209
       5    H3      18.473402   18.988157   25.027356 H          1 MOL1         0.0967
       6    H4      19.319965   17.746221   25.963141 H          1 MOL1         0.0967
       7    C2      19.984616   17.906653   23.908940 C.3        1 MOL1        -0.1378
       8    H5      20.966804   17.452822   24.096767 H          1 MOL1         0.0993
       9    H6      19.313438   17.089100   23.613855 H          1 MOL1         0.0993
      10    C3      20.083677   18.930066   22.752656 C.3        1 MOL1        -0.1338
      11    H7      20.785013   19.731203   23.020982 H          1 MOL1         0.0993
      12    H8      19.102103   19.399570   22.604843 H          1 MOL1         0.0993
      13    C4      20.551943   18.263531   21.436569 C.3        1 MOL1        -0.1338
      14    H9      21.497624   17.734473   21.618858 H          1 MOL1         0.0993
      15    H10     19.825117   17.499180   21.128612 H          1 MOL1         0.0993
      16    C5      20.766631   19.267938   20.278303 C.3        1 MOL1        -0.1313
      17    H11     21.194692   18.730445   19.420546 H          1 MOL1         0.0993
      18    H12     21.512006   20.020336   20.571757 H          1 MOL1         0.0993
      19    C6      19.467101   19.972405   19.826177 C.3        1 MOL1        -0.2328
      20    H13     18.694927   19.240841   19.554958 H          1 MOL1         0.1004
      21    H14     19.657071   20.600951   18.946535 H          1 MOL1         0.1004
      22    H15     19.064849   20.621547   20.613702 H          1 MOL1         0.1004
      23    C7      19.748671   20.130534   27.093850 C.3        1 MOL1        -0.0781
      24    H16     19.630204   19.312366   27.807647 H          1 MOL1         0.0978
      25    H17     20.412229   20.891107   27.511393 H          1 MOL1         0.0978
      26    H18     18.774652   20.572182   26.872097 H          1 MOL1         0.0978
@<TRIPOS>BOND
    1     1     2    1
    2     1     3    1
    3     1     4    1
    4     4     5    1
    5     4     6    1
    6     4     7    1
    7     7     8    1
    8     7     9    1
    9     7    10    1
   10    10    11    1
   11    10    12    1
   12    10    13    1
   13    13    14    1
   14    13    15    1
   15    13    16    1
   16    16    17    1
   17    16    18    1
   18    16    19    1
   19    19    20    1
   20    19    21    1
   21    19    22    1
   22     1    23    1
   23    23    24    1
   24    23    25    1
   25    23    26    1
@<TRIPOS>SUBSTRUCTURE
       1 MOL1            1 RESIDUE      1      MOL     
@<SCITEGIC>MOL_PROPERTY
VM2 Rank
SciTegic.value.IntegerValue
27

@<SCITEGIC>MOL_PROPERTY
Conf_Id
SciTegic.value.IntegerValue
1619

@<SCITEGIC>MOL_PROPERTY
Probability
SciTegic.value.DoubleValue
1.12

@<SCITEGIC>MOL_PROPERTY
Sum Probability
SciTegic.value.DoubleValue
60.11

@<SCITEGIC>MOL_PROPERTY
Delta G
SciTegic.value.DoubleValue
1.079

@<SCITEGIC>MOL_PROPERTY
G
SciTegic.value.DoubleValue
76.545

@<SCITEGIC>MOL_PROPERTY
E
SciTegic.value.DoubleValue
44.179

@<SCITEGIC>MOL_PROPERTY
-TS
SciTegic.value.DoubleValue
32.367

@<SCITEGIC>MOL_PROPERTY
U+W
SciTegic.value.DoubleValue
22.717

@<SCITEGIC>MOL_PROPERTY
U
SciTegic.value.DoubleValue
71.833

@<SCITEGIC>MOL_PROPERTY
W
SciTegic.value.DoubleValue
-49.116

@<SCITEGIC>MOL_PROPERTY
W(PB)
SciTegic.value.DoubleValue
-51.437

@<SCITEGIC>MOL_PROPERTY
W(SA)
SciTegic.value.DoubleValue
2.321

@<SCITEGIC>MOL_PROPERTY
Valence
SciTegic.value.DoubleValue
2.344

@<SCITEGIC>MOL_PROPERTY
Coulomb
SciTegic.value.DoubleValue
69.159

@<SCITEGIC>MOL_PROPERTY
VdW
SciTegic.value.DoubleValue
0.330

@<SCITEGIC>MOL_PROPERTY
VdW6
SciTegic.value.DoubleValue
-6.475

@<SCITEGIC>MOL_PROPERTY
VdW12
SciTegic.value.DoubleValue
6.805

@<SCITEGIC>MOL_PROPERTY
Bond
SciTegic.value.DoubleValue
0.178

@<SCITEGIC>MOL_PROPERTY
Angle
SciTegic.value.DoubleValue
0.658

@<SCITEGIC>MOL_PROPERTY
Pdih
SciTegic.value.DoubleValue
1.508

@<SCITEGIC>MOL_PROPERTY
Idih
SciTegic.value.DoubleValue
0.000

@<SCITEGIC>MOL_PROPERTY
Tether
SciTegic.value.DoubleValue
0.000

@<TRIPOS>MOLECULE
guest-s12_vm2.mol2 : vm2 ligand conformer 28
          26          25           1
SMALL
USER_CHARGES
 
@<TRIPOS>ATOM
       1    N1      20.668764   18.993420   25.713229 N.4        1 MOL1        -0.4857
       2    H1      21.306368   19.427797   25.029241 H          1 MOL1         0.3650
       3    H2      20.933241   17.996516   25.744010 H          1 MOL1         0.3650
       4    C1      19.231620   19.137751   25.250830 C.3        1 MOL1         0.0209
       5    H3      18.991960   20.203652   25.221450 H          1 MOL1         0.0967
       6    H4      18.594746   18.665569   26.003198 H          1 MOL1         0.0967
       7    C2      18.950258   18.504695   23.873774 C.3        1 MOL1        -0.1378
       8    H5      19.200398   17.435807   23.903278 H          1 MOL1         0.0993
       9    H6      17.871670   18.568240   23.677558 H          1 MOL1         0.0993
      10    C3      19.722083   19.199291   22.726522 C.3        1 MOL1        -0.1338
      11    H7      20.801094   19.110080   22.903802 H          1 MOL1         0.0993
      12    H8      19.485239   20.272340   22.723681 H          1 MOL1         0.0993
      13    C4      19.370510   18.589406   21.348053 C.3        1 MOL1        -0.1338
      14    H9      19.650573   17.527047   21.330280 H          1 MOL1         0.0993
      15    H10     18.281304   18.623715   21.207121 H          1 MOL1         0.0993
      16    C5      20.041782   19.320505   20.160010 C.3        1 MOL1        -0.1313
      17    H11     19.746768   20.379179   20.160200 H          1 MOL1         0.0993
      18    H12     19.657531   18.895225   19.222260 H          1 MOL1         0.0993
      19    C6      21.583685   19.210414   20.161175 C.3        1 MOL1        -0.2328
      20    H13     21.904917   18.161212   20.192625 H          1 MOL1         0.1004
      21    H14     22.025114   19.731660   21.019505 H          1 MOL1         0.1004
      22    H15     22.001439   19.661658   19.251893 H          1 MOL1         0.1004
      23    C7      20.839299   19.634518   27.083407 C.3        1 MOL1        -0.0781
      24    H16     20.178075   19.137923   27.796930 H          1 MOL1         0.0978
      25    H17     21.877603   19.523931   27.404058 H          1 MOL1         0.0978
      26    H18     20.584188   20.694523   27.018215 H          1 MOL1         0.0978
@<TRIPOS>BOND
    1     1     2    1
    2     1     3    1
    3     1     4    1
    4     4     5    1
    5     4     6    1
    6     4     7    1
    7     7     8    1
    8     7     9    1
    9     7    10    1
   10    10    11    1
   11    10    12    1
   12    10    13    1
   13    13    14    1
   14    13    15    1
   15    13    16    1
   16    16    17    1
   17    16    18    1
   18    16    19    1
   19    19    20    1
   20    19    21    1
   21    19    22    1
   22     1    23    1
   23    23    24    1
   24    23    25    1
   25    23    26    1
@<TRIPOS>SUBSTRUCTURE
       1 MOL1            1 RESIDUE      1      MOL     
@<SCITEGIC>MOL_PROPERTY
VM2 Rank
SciTegic.value.IntegerValue
28

@<SCITEGIC>MOL_PROPERTY
Conf_Id
SciTegic.value.IntegerValue
1293

@<SCITEGIC>MOL_PROPERTY
Probability
SciTegic.value.DoubleValue
1.11

@<SCITEGIC>MOL_PROPERTY
Sum Probability
SciTegic.value.DoubleValue
61.22

@<SCITEGIC>MOL_PROPERTY
Delta G
SciTegic.value.DoubleValue
1.085

@<SCITEGIC>MOL_PROPERTY
G
SciTegic.value.DoubleValue
76.551

@<SCITEGIC>MOL_PROPERTY
E
SciTegic.value.DoubleValue
44.191

@<SCITEGIC>MOL_PROPERTY
-TS
SciTegic.value.DoubleValue
32.360

@<SCITEGIC>MOL_PROPERTY
U+W
SciTegic.value.DoubleValue
22.729

@<SCITEGIC>MOL_PROPERTY
U
SciTegic.value.DoubleValue
71.970

@<SCITEGIC>MOL_PROPERTY
W
SciTegic.value.DoubleValue
-49.241

@<SCITEGIC>MOL_PROPERTY
W(PB)
SciTegic.value.DoubleValue
-51.540

@<SCITEGIC>MOL_PROPERTY
W(SA)
SciTegic.value.DoubleValue
2.299

@<SCITEGIC>MOL_PROPERTY
Valence
SciTegic.value.DoubleValue
2.341

@<SCITEGIC>MOL_PROPERTY
Coulomb
SciTegic.value.DoubleValue
69.301

@<SCITEGIC>MOL_PROPERTY
VdW
SciTegic.value.DoubleValue
0.328

@<SCITEGIC>MOL_PROPERTY
VdW6
SciTegic.value.DoubleValue
-6.486

@<SCITEGIC>MOL_PROPERTY
VdW12
SciTegic.value.DoubleValue
6.814

@<SCITEGIC>MOL_PROPERTY
Bond
SciTegic.value.DoubleValue
0.179

@<SCITEGIC>MOL_PROPERTY
Angle
SciTegic.value.DoubleValue
0.655

@<SCITEGIC>MOL_PROPERTY
Pdih
SciTegic.value.DoubleValue
1.507

@<SCITEGIC>MOL_PROPERTY
Idih
SciTegic.value.DoubleValue
0.000

@<SCITEGIC>MOL_PROPERTY
Tether
SciTegic.value.DoubleValue
0.000

@<TRIPOS>MOLECULE
guest-s12_vm2.mol2 : vm2 ligand conformer 29
          26          25           1
SMALL
USER_CHARGES
 
@<TRIPOS>ATOM
       1    N1      19.892594   18.939701   26.262034 N.4        1 MOL1        -0.4857
       2    H1      20.602875   18.295700   26.643589 H          1 MOL1         0.3650
       3    H2      18.988859   18.458266   26.389633 H          1 MOL1         0.3650
       4    C1      20.149359   19.188323   24.789400 C.3        1 MOL1         0.0209
       5    H3      21.116895   19.688123   24.697241 H          1 MOL1         0.0967
       6    H4      19.374406   19.867620   24.426457 H          1 MOL1         0.0967
       7    C2      20.149634   17.899332   23.945239 C.3        1 MOL1        -0.1378
       8    H5      20.903417   17.208005   24.344971 H          1 MOL1         0.0993
       9    H6      19.178699   17.395214   24.040578 H          1 MOL1         0.0993
      10    C3      20.453393   18.165234   22.451916 C.3        1 MOL1        -0.1338
      11    H7      20.519016   17.201634   21.928092 H          1 MOL1         0.0993
      12    H8      21.441926   18.635481   22.365081 H          1 MOL1         0.0993
      13    C4      19.381519   19.048172   21.763764 C.3        1 MOL1        -0.1338
      14    H9      18.388165   18.616031   21.947750 H          1 MOL1         0.0993
      15    H10     19.371571   20.050189   22.213255 H          1 MOL1         0.0993
      16    C5      19.584104   19.179781   20.234811 C.3        1 MOL1        -0.1313
      17    H11     18.732517   19.731178   19.812149 H          1 MOL1         0.0993
      18    H12     19.565991   18.184085   19.769964 H          1 MOL1         0.0993
      19    C6      20.891125   19.909632   19.849596 C.3        1 MOL1        -0.2328
      20    H13     20.943788   20.055373   18.762900 H          1 MOL1         0.1004
      21    H14     21.776824   19.335262   20.148094 H          1 MOL1         0.1004
      22    H15     20.946038   20.898260   20.323506 H          1 MOL1         0.1004
      23    C7      19.906272   20.259826   27.020239 C.3        1 MOL1        -0.0781
      24    H16     19.125415   20.911163   26.621518 H          1 MOL1         0.0978
      25    H17     19.720364   20.066639   28.079135 H          1 MOL1         0.0978
      26    H18     20.882413   20.734270   26.897721 H          1 MOL1         0.0978
@<TRIPOS>BOND
    1     1     2    1
    2     1     3    1
    3     1     4    1
    4     4     5    1
    5     4     6    1
    6     4     7    1
    7     7     8    1
    8     7     9    1
    9     7    10    1
   10    10    11    1
   11    10    12    1
   12    10    13    1
   13    13    14    1
   14    13    15    1
   15    13    16    1
   16    16    17    1
   17    16    18    1
   18    16    19    1
   19    19    20    1
   20    19    21    1
   21    19    22    1
   22     1    23    1
   23    23    24    1
   24    23    25    1
   25    23    26    1
@<TRIPOS>SUBSTRUCTURE
       1 MOL1            1 RESIDUE      1      MOL     
@<SCITEGIC>MOL_PROPERTY
VM2 Rank
SciTegic.value.IntegerValue
29

@<SCITEGIC>MOL_PROPERTY
Conf_Id
SciTegic.value.IntegerValue
1234

@<SCITEGIC>MOL_PROPERTY
Probability
SciTegic.value.DoubleValue
1.10

@<SCITEGIC>MOL_PROPERTY
Sum Probability
SciTegic.value.DoubleValue
62.32

@<SCITEGIC>MOL_PROPERTY
Delta G
SciTegic.value.DoubleValue
1.088

@<SCITEGIC>MOL_PROPERTY
G
SciTegic.value.DoubleValue
76.554

@<SCITEGIC>MOL_PROPERTY
E
SciTegic.value.DoubleValue
44.176

@<SCITEGIC>MOL_PROPERTY
-TS
SciTegic.value.DoubleValue
32.379

@<SCITEGIC>MOL_PROPERTY
U+W
SciTegic.value.DoubleValue
22.714

@<SCITEGIC>MOL_PROPERTY
U
SciTegic.value.DoubleValue
71.734

@<SCITEGIC>MOL_PROPERTY
W
SciTegic.value.DoubleValue
-49.020

@<SCITEGIC>MOL_PROPERTY
W(PB)
SciTegic.value.DoubleValue
-51.334

@<SCITEGIC>MOL_PROPERTY
W(SA)
SciTegic.value.DoubleValue
2.314

@<SCITEGIC>MOL_PROPERTY
Valence
SciTegic.value.DoubleValue
2.508

@<SCITEGIC>MOL_PROPERTY
Coulomb
SciTegic.value.DoubleValue
68.926

@<SCITEGIC>MOL_PROPERTY
VdW
SciTegic.value.DoubleValue
0.300

@<SCITEGIC>MOL_PROPERTY
VdW6
SciTegic.value.DoubleValue
-6.530

@<SCITEGIC>MOL_PROPERTY
VdW12
SciTegic.value.DoubleValue
6.830

@<SCITEGIC>MOL_PROPERTY
Bond
SciTegic.value.DoubleValue
0.185

@<SCITEGIC>MOL_PROPERTY
Angle
SciTegic.value.DoubleValue
0.693

@<SCITEGIC>MOL_PROPERTY
Pdih
SciTegic.value.DoubleValue
1.630

@<SCITEGIC>MOL_PROPERTY
Idih
SciTegic.value.DoubleValue
0.000

@<SCITEGIC>MOL_PROPERTY
Tether
SciTegic.value.DoubleValue
0.000

@<TRIPOS>MOLECULE
guest-s12_vm2.mol2 : vm2 ligand conformer 30
          26          25           1
SMALL
USER_CHARGES
 
@<TRIPOS>ATOM
       1    N1      19.470498   19.496514   25.776465 N.4        1 MOL1        -0.4857
       2    H1      18.625902   18.915476   25.893760 H          1 MOL1         0.3650
       3    H2      19.216633   20.216574   25.083496 H          1 MOL1         0.3650
       4    C1      20.616382   18.651640   25.253944 C.3        1 MOL1         0.0209
       5    H3      20.850106   17.905164   26.017339 H          1 MOL1         0.0967
       6    H4      21.487136   19.301140   25.134035 H          1 MOL1         0.0967
       7    C2      20.312100   17.940622   23.920549 C.3        1 MOL1        -0.1378
       8    H5      21.155792   17.280450   23.679088 H          1 MOL1         0.0993
       9    H6      19.433331   17.293456   24.042524 H          1 MOL1         0.0993
      10    C3      20.086142   18.930256   22.752753 C.3        1 MOL1        -0.1338
      11    H7      20.958229   19.592440   22.670611 H          1 MOL1         0.0993
      12    H8      19.218169   19.568269   22.965483 H          1 MOL1         0.0993
      13    C4      19.858096   18.191358   21.411989 C.3        1 MOL1        -0.1338
      14    H9      20.746216   17.594964   21.161182 H          1 MOL1         0.0993
      15    H10     19.030946   17.477926   21.531488 H          1 MOL1         0.0993
      16    C5      19.523138   19.138651   20.234304 C.3        1 MOL1        -0.1313
      17    H11     18.620365   19.719614   20.469428 H          1 MOL1         0.0993
      18    H12     19.275781   18.530952   19.352601 H          1 MOL1         0.0993
      19    C6      20.678508   20.098472   19.869156 C.3        1 MOL1        -0.2328
      20    H13     20.882620   20.810654   20.678182 H          1 MOL1         0.1004
      21    H14     20.425440   20.680968   18.973845 H          1 MOL1         0.1004
      22    H15     21.601607   19.543242   19.657956 H          1 MOL1         0.1004
      23    C7      19.863136   20.142488   27.097841 C.3        1 MOL1        -0.0781
      24    H16     20.738855   20.776237   26.941576 H          1 MOL1         0.0978
      25    H17     19.030046   20.747633   27.462370 H          1 MOL1         0.0978
      26    H18     20.096753   19.360901   27.824122 H          1 MOL1         0.0978
@<TRIPOS>BOND
    1     1     2    1
    2     1     3    1
    3     1     4    1
    4     4     5    1
    5     4     6    1
    6     4     7    1
    7     7     8    1
    8     7     9    1
    9     7    10    1
   10    10    11    1
   11    10    12    1
   12    10    13    1
   13    13    14    1
   14    13    15    1
   15    13    16    1
   16    16    17    1
   17    16    18    1
   18    16    19    1
   19    19    20    1
   20    19    21    1
   21    19    22    1
   22     1    23    1
   23    23    24    1
   24    23    25    1
   25    23    26    1
@<TRIPOS>SUBSTRUCTURE
       1 MOL1            1 RESIDUE      1      MOL     
@<SCITEGIC>MOL_PROPERTY
VM2 Rank
SciTegic.value.IntegerValue
30

@<SCITEGIC>MOL_PROPERTY
Conf_Id
SciTegic.value.IntegerValue
437

@<SCITEGIC>MOL_PROPERTY
Probability
SciTegic.value.DoubleValue
1.06

@<SCITEGIC>MOL_PROPERTY
Sum Probability
SciTegic.value.DoubleValue
63.38

@<SCITEGIC>MOL_PROPERTY
Delta G
SciTegic.value.DoubleValue
1.112

@<SCITEGIC>MOL_PROPERTY
G
SciTegic.value.DoubleValue
76.578

@<SCITEGIC>MOL_PROPERTY
E
SciTegic.value.DoubleValue
44.211

@<SCITEGIC>MOL_PROPERTY
-TS
SciTegic.value.DoubleValue
32.367

@<SCITEGIC>MOL_PROPERTY
U+W
SciTegic.value.DoubleValue
22.749

@<SCITEGIC>MOL_PROPERTY
U
SciTegic.value.DoubleValue
71.833

@<SCITEGIC>MOL_PROPERTY
W
SciTegic.value.DoubleValue
-49.084

@<SCITEGIC>MOL_PROPERTY
W(PB)
SciTegic.value.DoubleValue
-51.404

@<SCITEGIC>MOL_PROPERTY
W(SA)
SciTegic.value.DoubleValue
2.321

@<SCITEGIC>MOL_PROPERTY
Valence
SciTegic.value.DoubleValue
2.344

@<SCITEGIC>MOL_PROPERTY
Coulomb
SciTegic.value.DoubleValue
69.159

@<SCITEGIC>MOL_PROPERTY
VdW
SciTegic.value.DoubleValue
0.330

@<SCITEGIC>MOL_PROPERTY
VdW6
SciTegic.value.DoubleValue
-6.475

@<SCITEGIC>MOL_PROPERTY
VdW12
SciTegic.value.DoubleValue
6.805

@<SCITEGIC>MOL_PROPERTY
Bond
SciTegic.value.DoubleValue
0.178

@<SCITEGIC>MOL_PROPERTY
Angle
SciTegic.value.DoubleValue
0.658

@<SCITEGIC>MOL_PROPERTY
Pdih
SciTegic.value.DoubleValue
1.508

@<SCITEGIC>MOL_PROPERTY
Idih
SciTegic.value.DoubleValue
0.000

@<SCITEGIC>MOL_PROPERTY
Tether
SciTegic.value.DoubleValue
0.000

@<TRIPOS>MOLECULE
guest-s12_vm2.mol2 : vm2 ligand conformer 31
          26          25           1
SMALL
USER_CHARGES
 
@<TRIPOS>ATOM
       1    N1      20.425020   19.611306   25.809207 N.4        1 MOL1        -0.4857
       2    H1      20.075279   20.466062   25.350641 H          1 MOL1         0.3650
       3    H2      21.436348   19.582666   25.606700 H          1 MOL1         0.3650
       4    C1      19.741090   18.390255   25.225192 C.3        1 MOL1         0.0209
       5    H3      18.674154   18.460911   25.451230 H          1 MOL1         0.0967
       6    H4      20.140966   17.511465   25.737484 H          1 MOL1         0.0967
       7    C2      19.939769   18.230440   23.705088 C.3        1 MOL1        -0.1378
       8    H5      21.013216   18.158668   23.489275 H          1 MOL1         0.0993
       9    H6      19.491645   17.277127   23.395032 H          1 MOL1         0.0993
      10    C3      19.298918   19.386305   22.896500 C.3        1 MOL1        -0.1338
      11    H7      19.800103   20.334868   23.131177 H          1 MOL1         0.0993
      12    H8      18.252154   19.503294   23.210084 H          1 MOL1         0.0993
      13    C4      19.329427   19.158553   21.365027 C.3        1 MOL1        -0.1338
      14    H9      18.808066   18.222635   21.120944 H          1 MOL1         0.0993
      15    H10     18.758493   19.963461   20.881701 H          1 MOL1         0.0993
      16    C5      20.758278   19.129703   20.772082 C.3        1 MOL1        -0.1313
      17    H11     21.323869   18.284299   21.185846 H          1 MOL1         0.0993
      18    H12     21.297306   20.043940   21.057358 H          1 MOL1         0.0993
      19    C6      20.733811   19.010011   19.233234 C.3        1 MOL1        -0.2328
      20    H13     20.226863   18.089019   18.917032 H          1 MOL1         0.1004
      21    H14     21.754475   18.988067   18.829772 H          1 MOL1         0.1004
      22    H15     20.210734   19.861445   18.778660 H          1 MOL1         0.1004
      23    C7      20.181688   19.673427   27.310669 C.3        1 MOL1        -0.0781
      24    H16     20.587878   18.773541   27.777733 H          1 MOL1         0.0978
      25    H17     20.678588   20.556790   27.717952 H          1 MOL1         0.0978
      26    H18     19.107446   19.735050   27.498142 H          1 MOL1         0.0978
@<TRIPOS>BOND
    1     1     2    1
    2     1     3    1
    3     1     4    1
    4     4     5    1
    5     4     6    1
    6     4     7    1
    7     7     8    1
    8     7     9    1
    9     7    10    1
   10    10    11    1
   11    10    12    1
   12    10    13    1
   13    13    14    1
   14    13    15    1
   15    13    16    1
   16    16    17    1
   17    16    18    1
   18    16    19    1
   19    19    20    1
   20    19    21    1
   21    19    22    1
   22     1    23    1
   23    23    24    1
   24    23    25    1
   25    23    26    1
@<TRIPOS>SUBSTRUCTURE
       1 MOL1            1 RESIDUE      1      MOL     
@<SCITEGIC>MOL_PROPERTY
VM2 Rank
SciTegic.value.IntegerValue
31

@<SCITEGIC>MOL_PROPERTY
Conf_Id
SciTegic.value.IntegerValue
1493

@<SCITEGIC>MOL_PROPERTY
Probability
SciTegic.value.DoubleValue
1.05

@<SCITEGIC>MOL_PROPERTY
Sum Probability
SciTegic.value.DoubleValue
64.42

@<SCITEGIC>MOL_PROPERTY
Delta G
SciTegic.value.DoubleValue
1.119

@<SCITEGIC>MOL_PROPERTY
G
SciTegic.value.DoubleValue
76.585

@<SCITEGIC>MOL_PROPERTY
E
SciTegic.value.DoubleValue
44.220

@<SCITEGIC>MOL_PROPERTY
-TS
SciTegic.value.DoubleValue
32.365

@<SCITEGIC>MOL_PROPERTY
U+W
SciTegic.value.DoubleValue
22.758

@<SCITEGIC>MOL_PROPERTY
U
SciTegic.value.DoubleValue
71.994

@<SCITEGIC>MOL_PROPERTY
W
SciTegic.value.DoubleValue
-49.236

@<SCITEGIC>MOL_PROPERTY
W(PB)
SciTegic.value.DoubleValue
-51.536

@<SCITEGIC>MOL_PROPERTY
W(SA)
SciTegic.value.DoubleValue
2.300

@<SCITEGIC>MOL_PROPERTY
Valence
SciTegic.value.DoubleValue
2.376

@<SCITEGIC>MOL_PROPERTY
Coulomb
SciTegic.value.DoubleValue
69.315

@<SCITEGIC>MOL_PROPERTY
VdW
SciTegic.value.DoubleValue
0.303

@<SCITEGIC>MOL_PROPERTY
VdW6
SciTegic.value.DoubleValue
-6.508

@<SCITEGIC>MOL_PROPERTY
VdW12
SciTegic.value.DoubleValue
6.811

@<SCITEGIC>MOL_PROPERTY
Bond
SciTegic.value.DoubleValue
0.182

@<SCITEGIC>MOL_PROPERTY
Angle
SciTegic.value.DoubleValue
0.660

@<SCITEGIC>MOL_PROPERTY
Pdih
SciTegic.value.DoubleValue
1.534

@<SCITEGIC>MOL_PROPERTY
Idih
SciTegic.value.DoubleValue
0.000

@<SCITEGIC>MOL_PROPERTY
Tether
SciTegic.value.DoubleValue
0.000

@<TRIPOS>MOLECULE
guest-s12_vm2.mol2 : vm2 ligand conformer 32
          26          25           1
SMALL
USER_CHARGES
 
@<TRIPOS>ATOM
       1    N1      20.025192   18.953479   26.266765 N.4        1 MOL1        -0.4857
       2    H1      20.997464   18.667460   26.460869 H          1 MOL1         0.3650
       3    H2      19.437737   18.174291   26.602301 H          1 MOL1         0.3650
       4    C1      19.826556   19.154684   24.777987 C.3        1 MOL1         0.0209
       5    H3      20.468514   19.981627   24.465293 H          1 MOL1         0.0967
       6    H4      18.785727   19.445217   24.614633 H          1 MOL1         0.0967
       7    C2      20.150838   17.899481   23.945275 C.3        1 MOL1        -0.1378
       8    H5      21.195695   17.605486   24.111958 H          1 MOL1         0.0993
       9    H6      19.529552   17.064810   24.296322 H          1 MOL1         0.0993
      10    C3      19.904017   18.108014   22.432469 C.3        1 MOL1        -0.1338
      11    H7      18.848355   18.365141   22.273291 H          1 MOL1         0.0993
      12    H8      20.075121   17.155420   21.912362 H          1 MOL1         0.0993
      13    C4      20.816428   19.197845   21.814552 C.3        1 MOL1        -0.1338
      14    H9      20.588215   20.177118   22.256279 H          1 MOL1         0.0993
      15    H10     21.862146   18.978345   22.070754 H          1 MOL1         0.0993
      16    C5      20.698565   19.295979   20.274247 C.3        1 MOL1        -0.1313
      17    H11     20.953967   18.328791   19.819123 H          1 MOL1         0.0993
      18    H12     21.445683   20.014092   19.908168 H          1 MOL1         0.0993
      19    C6      19.299419   19.743582   19.793187 C.3        1 MOL1        -0.2328
      20    H13     18.532438   18.996847   20.033167 H          1 MOL1         0.1004
      21    H14     19.294025   19.883254   18.704432 H          1 MOL1         0.1004
      22    H15     19.008911   20.696191   20.254850 H          1 MOL1         0.1004
      23    C7      19.686985   20.236936   27.012519 C.3        1 MOL1        -0.0781
      24    H16     18.645132   20.501196   26.818432 H          1 MOL1         0.0978
      25    H17     19.833989   20.078401   28.083220 H          1 MOL1         0.0978
      26    H18     20.343047   21.037946   26.664786 H          1 MOL1         0.0978
@<TRIPOS>BOND
    1     1     2    1
    2     1     3    1
    3     1     4    1
    4     4     5    1
    5     4     6    1
    6     4     7    1
    7     7     8    1
    8     7     9    1
    9     7    10    1
   10    10    11    1
   11    10    12    1
   12    10    13    1
   13    13    14    1
   14    13    15    1
   15    13    16    1
   16    16    17    1
   17    16    18    1
   18    16    19    1
   19    19    20    1
   20    19    21    1
   21    19    22    1
   22     1    23    1
   23    23    24    1
   24    23    25    1
   25    23    26    1
@<TRIPOS>SUBSTRUCTURE
       1 MOL1            1 RESIDUE      1      MOL     
@<SCITEGIC>MOL_PROPERTY
VM2 Rank
SciTegic.value.IntegerValue
32

@<SCITEGIC>MOL_PROPERTY
Conf_Id
SciTegic.value.IntegerValue
1491

@<SCITEGIC>MOL_PROPERTY
Probability
SciTegic.value.DoubleValue
1.04

@<SCITEGIC>MOL_PROPERTY
Sum Probability
SciTegic.value.DoubleValue
65.46

@<SCITEGIC>MOL_PROPERTY
Delta G
SciTegic.value.DoubleValue
1.121

@<SCITEGIC>MOL_PROPERTY
G
SciTegic.value.DoubleValue
76.587

@<SCITEGIC>MOL_PROPERTY
E
SciTegic.value.DoubleValue
44.208

@<SCITEGIC>MOL_PROPERTY
-TS
SciTegic.value.DoubleValue
32.379

@<SCITEGIC>MOL_PROPERTY
U+W
SciTegic.value.DoubleValue
22.746

@<SCITEGIC>MOL_PROPERTY
U
SciTegic.value.DoubleValue
71.734

@<SCITEGIC>MOL_PROPERTY
W
SciTegic.value.DoubleValue
-48.988

@<SCITEGIC>MOL_PROPERTY
W(PB)
SciTegic.value.DoubleValue
-51.298

@<SCITEGIC>MOL_PROPERTY
W(SA)
SciTegic.value.DoubleValue
2.311

@<SCITEGIC>MOL_PROPERTY
Valence
SciTegic.value.DoubleValue
2.508

@<SCITEGIC>MOL_PROPERTY
Coulomb
SciTegic.value.DoubleValue
68.926

@<SCITEGIC>MOL_PROPERTY
VdW
SciTegic.value.DoubleValue
0.300

@<SCITEGIC>MOL_PROPERTY
VdW6
SciTegic.value.DoubleValue
-6.530

@<SCITEGIC>MOL_PROPERTY
VdW12
SciTegic.value.DoubleValue
6.830

@<SCITEGIC>MOL_PROPERTY
Bond
SciTegic.value.DoubleValue
0.185

@<SCITEGIC>MOL_PROPERTY
Angle
SciTegic.value.DoubleValue
0.693

@<SCITEGIC>MOL_PROPERTY
Pdih
SciTegic.value.DoubleValue
1.631

@<SCITEGIC>MOL_PROPERTY
Idih
SciTegic.value.DoubleValue
0.000

@<SCITEGIC>MOL_PROPERTY
Tether
SciTegic.value.DoubleValue
0.000

@<TRIPOS>MOLECULE
guest-s12_vm2.mol2 : vm2 ligand conformer 33
          26          25           1
SMALL
USER_CHARGES
 
@<TRIPOS>ATOM
       1    N1      19.786262   19.695315   25.555149 N.4        1 MOL1        -0.4857
       2    H1      18.876567   19.610123   26.034554 H          1 MOL1         0.3650
       3    H2      19.624444   20.339248   24.766309 H          1 MOL1         0.3650
       4    C1      20.230820   18.341971   25.035960 C.3        1 MOL1         0.0209
       5    H3      20.378540   17.688288   25.899357 H          1 MOL1         0.0967
       6    H4      21.195678   18.471946   24.540170 H          1 MOL1         0.0967
       7    C2      19.228613   17.686825   24.063087 C.3        1 MOL1        -0.1378
       8    H5      19.608464   16.695468   23.782448 H          1 MOL1         0.0993
       9    H6      18.279587   17.512996   24.587436 H          1 MOL1         0.0993
      10    C3      18.961591   18.513230   22.779717 C.3        1 MOL1        -0.1338
      11    H7      18.489027   19.469317   23.041709 H          1 MOL1         0.0993
      12    H8      18.231025   17.972328   22.162323 H          1 MOL1         0.0993
      13    C4      20.238606   18.771999   21.944214 C.3        1 MOL1        -0.1338
      14    H9      20.961611   19.353610   22.531574 H          1 MOL1         0.0993
      15    H10     20.720721   17.814054   21.704778 H          1 MOL1         0.0993
      16    C5      19.924418   19.530384   20.635356 C.3        1 MOL1        -0.1313
      17    H11     19.440018   20.488962   20.868646 H          1 MOL1         0.0993
      18    H12     19.209073   18.952365   20.033559 H          1 MOL1         0.0993
      19    C6      21.199185   19.790150   19.804486 C.3        1 MOL1        -0.2328
      20    H13     20.955910   20.328617   18.879343 H          1 MOL1         0.1004
      21    H14     21.688337   18.847446   19.526570 H          1 MOL1         0.1004
      22    H15     21.920746   20.396722   20.367167 H          1 MOL1         0.1004
      23    C7      20.838506   20.260125   26.499032 C.3        1 MOL1        -0.0781
      24    H16     21.782215   20.370283   25.960342 H          1 MOL1         0.0978
      25    H17     20.506199   21.234419   26.864305 H          1 MOL1         0.0978
      26    H18     20.970188   19.576169   27.340331 H          1 MOL1         0.0978
@<TRIPOS>BOND
    1     1     2    1
    2     1     3    1
    3     1     4    1
    4     4     5    1
    5     4     6    1
    6     4     7    1
    7     7     8    1
    8     7     9    1
    9     7    10    1
   10    10    11    1
   11    10    12    1
   12    10    13    1
   13    13    14    1
   14    13    15    1
   15    13    16    1
   16    16    17    1
   17    16    18    1
   18    16    19    1
   19    19    20    1
   20    19    21    1
   21    19    22    1
   22     1    23    1
   23    23    24    1
   24    23    25    1
   25    23    26    1
@<TRIPOS>SUBSTRUCTURE
       1 MOL1            1 RESIDUE      1      MOL     
@<SCITEGIC>MOL_PROPERTY
VM2 Rank
SciTegic.value.IntegerValue
33

@<SCITEGIC>MOL_PROPERTY
Conf_Id
SciTegic.value.IntegerValue
1244

@<SCITEGIC>MOL_PROPERTY
Probability
SciTegic.value.DoubleValue
1.00

@<SCITEGIC>MOL_PROPERTY
Sum Probability
SciTegic.value.DoubleValue
66.46

@<SCITEGIC>MOL_PROPERTY
Delta G
SciTegic.value.DoubleValue
1.146

@<SCITEGIC>MOL_PROPERTY
G
SciTegic.value.DoubleValue
76.612

@<SCITEGIC>MOL_PROPERTY
E
SciTegic.value.DoubleValue
44.169

@<SCITEGIC>MOL_PROPERTY
-TS
SciTegic.value.DoubleValue
32.443

@<SCITEGIC>MOL_PROPERTY
U+W
SciTegic.value.DoubleValue
22.707

@<SCITEGIC>MOL_PROPERTY
U
SciTegic.value.DoubleValue
71.905

@<SCITEGIC>MOL_PROPERTY
W
SciTegic.value.DoubleValue
-49.198

@<SCITEGIC>MOL_PROPERTY
W(PB)
SciTegic.value.DoubleValue
-51.489

@<SCITEGIC>MOL_PROPERTY
W(SA)
SciTegic.value.DoubleValue
2.292

@<SCITEGIC>MOL_PROPERTY
Valence
SciTegic.value.DoubleValue
2.125

@<SCITEGIC>MOL_PROPERTY
Coulomb
SciTegic.value.DoubleValue
69.686

@<SCITEGIC>MOL_PROPERTY
VdW
SciTegic.value.DoubleValue
0.093

@<SCITEGIC>MOL_PROPERTY
VdW6
SciTegic.value.DoubleValue
-6.766

@<SCITEGIC>MOL_PROPERTY
VdW12
SciTegic.value.DoubleValue
6.859

@<SCITEGIC>MOL_PROPERTY
Bond
SciTegic.value.DoubleValue
0.169

@<SCITEGIC>MOL_PROPERTY
Angle
SciTegic.value.DoubleValue
0.621

@<SCITEGIC>MOL_PROPERTY
Pdih
SciTegic.value.DoubleValue
1.336

@<SCITEGIC>MOL_PROPERTY
Idih
SciTegic.value.DoubleValue
0.000

@<SCITEGIC>MOL_PROPERTY
Tether
SciTegic.value.DoubleValue
0.000

@<TRIPOS>MOLECULE
guest-s12_vm2.mol2 : vm2 ligand conformer 34
          26          25           1
SMALL
USER_CHARGES
 
@<TRIPOS>ATOM
       1    N1      20.424781   18.803132   25.941226 N.4        1 MOL1        -0.4857
       2    H1      21.191113   18.143724   25.734971 H          1 MOL1         0.3650
       3    H2      19.749423   18.269878   26.510726 H          1 MOL1         0.3650
       4    C1      19.772469   19.266672   24.654436 C.3        1 MOL1         0.0209
       5    H3      20.520479   19.821542   24.082991 H          1 MOL1         0.0967
       6    H4      18.961241   19.950512   24.916454 H          1 MOL1         0.0967
       7    C2      19.219618   18.109841   23.800259 C.3        1 MOL1        -0.1378
       8    H5      20.031175   17.415800   23.547222 H          1 MOL1         0.0993
       9    H6      18.499064   17.535162   24.397229 H          1 MOL1         0.0993
      10    C3      18.518714   18.600629   22.508770 C.3        1 MOL1        -0.1338
      11    H7      17.626796   19.179276   22.786551 H          1 MOL1         0.0993
      12    H8      18.150511   17.729326   21.949693 H          1 MOL1         0.0993
      13    C4      19.402287   19.467765   21.574552 C.3        1 MOL1        -0.1338
      14    H9      18.795569   19.773693   20.711013 H          1 MOL1         0.0993
      15    H10     19.690120   20.396824   22.084697 H          1 MOL1         0.0993
      16    C5      20.668284   18.738472   21.065690 C.3        1 MOL1        -0.1313
      17    H11     20.384077   17.788432   20.591967 H          1 MOL1         0.0993
      18    H12     21.327062   18.489898   21.908418 H          1 MOL1         0.0993
      19    C6      21.453974   19.600013   20.054163 C.3        1 MOL1        -0.2328
      20    H13     22.349439   19.069091   19.705923 H          1 MOL1         0.1004
      21    H14     21.778374   20.545142   20.508787 H          1 MOL1         0.1004
      22    H15     20.840078   19.836383   19.175276 H          1 MOL1         0.1004
      23    C7      20.947873   20.003476   26.717904 C.3        1 MOL1        -0.0781
      24    H16     21.414844   19.656143   27.642259 H          1 MOL1         0.0978
      25    H17     21.684234   20.532292   26.108746 H          1 MOL1         0.0978
      26    H18     20.114949   20.669684   26.953188 H          1 MOL1         0.0978
@<TRIPOS>BOND
    1     1     2    1
    2     1     3    1
    3     1     4    1
    4     4     5    1
    5     4     6    1
    6     4     7    1
    7     7     8    1
    8     7     9    1
    9     7    10    1
   10    10    11    1
   11    10    12    1
   12    10    13    1
   13    13    14    1
   14    13    15    1
   15    13    16    1
   16    16    17    1
   17    16    18    1
   18    16    19    1
   19    19    20    1
   20    19    21    1
   21    19    22    1
   22     1    23    1
   23    23    24    1
   24    23    25    1
   25    23    26    1
@<TRIPOS>SUBSTRUCTURE
       1 MOL1            1 RESIDUE      1      MOL     
@<SCITEGIC>MOL_PROPERTY
VM2 Rank
SciTegic.value.IntegerValue
34

@<SCITEGIC>MOL_PROPERTY
Conf_Id
SciTegic.value.IntegerValue
1295

@<SCITEGIC>MOL_PROPERTY
Probability
SciTegic.value.DoubleValue
0.99

@<SCITEGIC>MOL_PROPERTY
Sum Probability
SciTegic.value.DoubleValue
67.45

@<SCITEGIC>MOL_PROPERTY
Delta G
SciTegic.value.DoubleValue
1.154

@<SCITEGIC>MOL_PROPERTY
G
SciTegic.value.DoubleValue
76.620

@<SCITEGIC>MOL_PROPERTY
E
SciTegic.value.DoubleValue
44.123

@<SCITEGIC>MOL_PROPERTY
-TS
SciTegic.value.DoubleValue
32.497

@<SCITEGIC>MOL_PROPERTY
U+W
SciTegic.value.DoubleValue
22.661

@<SCITEGIC>MOL_PROPERTY
U
SciTegic.value.DoubleValue
72.035

@<SCITEGIC>MOL_PROPERTY
W
SciTegic.value.DoubleValue
-49.374

@<SCITEGIC>MOL_PROPERTY
W(PB)
SciTegic.value.DoubleValue
-51.684

@<SCITEGIC>MOL_PROPERTY
W(SA)
SciTegic.value.DoubleValue
2.310

@<SCITEGIC>MOL_PROPERTY
Valence
SciTegic.value.DoubleValue
2.479

@<SCITEGIC>MOL_PROPERTY
Coulomb
SciTegic.value.DoubleValue
69.414

@<SCITEGIC>MOL_PROPERTY
VdW
SciTegic.value.DoubleValue
0.143

@<SCITEGIC>MOL_PROPERTY
VdW6
SciTegic.value.DoubleValue
-6.882

@<SCITEGIC>MOL_PROPERTY
VdW12
SciTegic.value.DoubleValue
7.025

@<SCITEGIC>MOL_PROPERTY
Bond
SciTegic.value.DoubleValue
0.193

@<SCITEGIC>MOL_PROPERTY
Angle
SciTegic.value.DoubleValue
0.854

@<SCITEGIC>MOL_PROPERTY
Pdih
SciTegic.value.DoubleValue
1.433

@<SCITEGIC>MOL_PROPERTY
Idih
SciTegic.value.DoubleValue
0.000

@<SCITEGIC>MOL_PROPERTY
Tether
SciTegic.value.DoubleValue
0.000

@<TRIPOS>MOLECULE
guest-s12_vm2.mol2 : vm2 ligand conformer 35
          26          25           1
SMALL
USER_CHARGES
 
@<TRIPOS>ATOM
       1    N1      20.022749   19.720008   25.563618 N.4        1 MOL1        -0.4857
       2    H1      20.102889   20.389291   24.783400 H          1 MOL1         0.3650
       3    H2      20.894677   19.820845   26.106025 H          1 MOL1         0.3650
       4    C1      19.904455   18.307926   25.024398 C.3        1 MOL1         0.0209
       5    H3      18.970613   18.239645   24.461431 H          1 MOL1         0.0967
       6    H4      19.834825   17.631481   25.880055 H          1 MOL1         0.0967
       7    C2      21.085804   17.880890   24.128755 C.3        1 MOL1        -0.1378
       8    H5      22.011250   17.902865   24.719412 H          1 MOL1         0.0993
       9    H6      20.939326   16.834554   23.829490 H          1 MOL1         0.0993
      10    C3      21.265536   18.753965   22.861190 C.3        1 MOL1        -0.1338
      11    H7      22.133390   18.380073   22.300374 H          1 MOL1         0.0993
      12    H8      21.511008   19.785085   23.148583 H          1 MOL1         0.0993
      13    C4      20.024240   18.749569   21.936552 C.3        1 MOL1        -0.1338
      14    H9      19.768299   17.714495   21.670963 H          1 MOL1         0.0993
      15    H10     19.157439   19.165007   22.467653 H          1 MOL1         0.0993
      16    C5      20.265789   19.566068   20.647383 C.3        1 MOL1        -0.1313
      17    H11     21.125371   19.152655   20.101312 H          1 MOL1         0.0993
      18    H12     20.524274   20.602279   20.906987 H          1 MOL1         0.0993
      19    C6      19.026147   19.563076   19.727527 C.3        1 MOL1        -0.2328
      20    H13     19.217071   20.146931   18.817759 H          1 MOL1         0.1004
      21    H14     18.157338   20.003436   20.233933 H          1 MOL1         0.1004
      22    H15     18.762864   18.541742   19.422968 H          1 MOL1         0.1004
      23    C7      18.813280   20.048497   26.427577 C.3        1 MOL1        -0.0781
      24    H16     18.767146   19.345875   27.262510 H          1 MOL1         0.0978
      25    H17     18.911009   21.067664   26.808172 H          1 MOL1         0.0978
      26    H18     17.907140   19.965513   25.823480 H          1 MOL1         0.0978
@<TRIPOS>BOND
    1     1     2    1
    2     1     3    1
    3     1     4    1
    4     4     5    1
    5     4     6    1
    6     4     7    1
    7     7     8    1
    8     7     9    1
    9     7    10    1
   10    10    11    1
   11    10    12    1
   12    10    13    1
   13    13    14    1
   14    13    15    1
   15    13    16    1
   16    16    17    1
   17    16    18    1
   18    16    19    1
   19    19    20    1
   20    19    21    1
   21    19    22    1
   22     1    23    1
   23    23    24    1
   24    23    25    1
   25    23    26    1
@<TRIPOS>SUBSTRUCTURE
       1 MOL1            1 RESIDUE      1      MOL     
@<SCITEGIC>MOL_PROPERTY
VM2 Rank
SciTegic.value.IntegerValue
35

@<SCITEGIC>MOL_PROPERTY
Conf_Id
SciTegic.value.IntegerValue
1325

@<SCITEGIC>MOL_PROPERTY
Probability
SciTegic.value.DoubleValue
0.97

@<SCITEGIC>MOL_PROPERTY
Sum Probability
SciTegic.value.DoubleValue
68.42

@<SCITEGIC>MOL_PROPERTY
Delta G
SciTegic.value.DoubleValue
1.161

@<SCITEGIC>MOL_PROPERTY
G
SciTegic.value.DoubleValue
76.627

@<SCITEGIC>MOL_PROPERTY
E
SciTegic.value.DoubleValue
44.184

@<SCITEGIC>MOL_PROPERTY
-TS
SciTegic.value.DoubleValue
32.443

@<SCITEGIC>MOL_PROPERTY
U+W
SciTegic.value.DoubleValue
22.722

@<SCITEGIC>MOL_PROPERTY
U
SciTegic.value.DoubleValue
71.905

@<SCITEGIC>MOL_PROPERTY
W
SciTegic.value.DoubleValue
-49.182

@<SCITEGIC>MOL_PROPERTY
W(PB)
SciTegic.value.DoubleValue
-51.494

@<SCITEGIC>MOL_PROPERTY
W(SA)
SciTegic.value.DoubleValue
2.312

@<SCITEGIC>MOL_PROPERTY
Valence
SciTegic.value.DoubleValue
2.125

@<SCITEGIC>MOL_PROPERTY
Coulomb
SciTegic.value.DoubleValue
69.686

@<SCITEGIC>MOL_PROPERTY
VdW
SciTegic.value.DoubleValue
0.093

@<SCITEGIC>MOL_PROPERTY
VdW6
SciTegic.value.DoubleValue
-6.765

@<SCITEGIC>MOL_PROPERTY
VdW12
SciTegic.value.DoubleValue
6.859

@<SCITEGIC>MOL_PROPERTY
Bond
SciTegic.value.DoubleValue
0.169

@<SCITEGIC>MOL_PROPERTY
Angle
SciTegic.value.DoubleValue
0.621

@<SCITEGIC>MOL_PROPERTY
Pdih
SciTegic.value.DoubleValue
1.336

@<SCITEGIC>MOL_PROPERTY
Idih
SciTegic.value.DoubleValue
0.000

@<SCITEGIC>MOL_PROPERTY
Tether
SciTegic.value.DoubleValue
0.000

@<TRIPOS>MOLECULE
guest-s12_vm2.mol2 : vm2 ligand conformer 36
          26          25           1
SMALL
USER_CHARGES
 
@<TRIPOS>ATOM
       1    N1      19.399556   19.504989   25.772980 N.4        1 MOL1        -0.4857
       2    H1      18.432207   19.271175   25.500619 H          1 MOL1         0.3650
       3    H2      19.597853   20.416544   25.333717 H          1 MOL1         0.3650
       4    C1      20.358231   18.454221   25.247027 C.3        1 MOL1         0.0209
       5    H3      20.112082   17.508460   25.736480 H          1 MOL1         0.0967
       6    H4      21.369606   18.740323   25.546535 H          1 MOL1         0.0967
       7    C2      20.303209   18.268107   23.717954 C.3        1 MOL1        -0.1378
       8    H5      20.957588   17.429017   23.446897 H          1 MOL1         0.0993
       9    H6      19.284967   17.979620   23.428169 H          1 MOL1         0.0993
      10    C3      20.748728   19.536514   22.947769 C.3        1 MOL1        -0.1338
      11    H7      21.724819   19.863095   23.332900 H          1 MOL1         0.0993
      12    H8      20.048781   20.360635   23.139939 H          1 MOL1         0.0993
      13    C4      20.872652   19.318400   21.419607 C.3        1 MOL1        -0.1338
      14    H9      21.299132   20.226589   20.971550 H          1 MOL1         0.0993
      15    H10     21.590292   18.510786   21.219381 H          1 MOL1         0.0993
      16    C5      19.524992   19.002007   20.728424 C.3        1 MOL1        -0.1313
      17    H11     18.791681   19.784520   20.968612 H          1 MOL1         0.0993
      18    H12     19.116842   18.055809   21.107796 H          1 MOL1         0.0993
      19    C6      19.681016   18.900896   19.195971 C.3        1 MOL1        -0.2328
      20    H13     20.049315   19.844582   18.772887 H          1 MOL1         0.1004
      21    H14     18.717212   18.673477   18.722282 H          1 MOL1         0.1004
      22    H15     20.386528   18.105407   18.922741 H          1 MOL1         0.1004
      23    C7      19.519615   19.604867   27.287269 C.3        1 MOL1        -0.0781
      24    H16     20.542658   19.884042   27.548777 H          1 MOL1         0.0978
      25    H17     18.825007   20.364656   27.652453 H          1 MOL1         0.0978
      26    H18     19.274942   18.637489   27.731397 H          1 MOL1         0.0978
@<TRIPOS>BOND
    1     1     2    1
    2     1     3    1
    3     1     4    1
    4     4     5    1
    5     4     6    1
    6     4     7    1
    7     7     8    1
    8     7     9    1
    9     7    10    1
   10    10    11    1
   11    10    12    1
   12    10    13    1
   13    13    14    1
   14    13    15    1
   15    13    16    1
   16    16    17    1
   17    16    18    1
   18    16    19    1
   19    19    20    1
   20    19    21    1
   21    19    22    1
   22     1    23    1
   23    23    24    1
   24    23    25    1
   25    23    26    1
@<TRIPOS>SUBSTRUCTURE
       1 MOL1            1 RESIDUE      1      MOL     
@<SCITEGIC>MOL_PROPERTY
VM2 Rank
SciTegic.value.IntegerValue
36

@<SCITEGIC>MOL_PROPERTY
Conf_Id
SciTegic.value.IntegerValue
981

@<SCITEGIC>MOL_PROPERTY
Probability
SciTegic.value.DoubleValue
0.93

@<SCITEGIC>MOL_PROPERTY
Sum Probability
SciTegic.value.DoubleValue
69.35

@<SCITEGIC>MOL_PROPERTY
Delta G
SciTegic.value.DoubleValue
1.191

@<SCITEGIC>MOL_PROPERTY
G
SciTegic.value.DoubleValue
76.657

@<SCITEGIC>MOL_PROPERTY
E
SciTegic.value.DoubleValue
44.292

@<SCITEGIC>MOL_PROPERTY
-TS
SciTegic.value.DoubleValue
32.365

@<SCITEGIC>MOL_PROPERTY
U+W
SciTegic.value.DoubleValue
22.830

@<SCITEGIC>MOL_PROPERTY
U
SciTegic.value.DoubleValue
71.994

@<SCITEGIC>MOL_PROPERTY
W
SciTegic.value.DoubleValue
-49.164

@<SCITEGIC>MOL_PROPERTY
W(PB)
SciTegic.value.DoubleValue
-51.484

@<SCITEGIC>MOL_PROPERTY
W(SA)
SciTegic.value.DoubleValue
2.320

@<SCITEGIC>MOL_PROPERTY
Valence
SciTegic.value.DoubleValue
2.376

@<SCITEGIC>MOL_PROPERTY
Coulomb
SciTegic.value.DoubleValue
69.315

@<SCITEGIC>MOL_PROPERTY
VdW
SciTegic.value.DoubleValue
0.303

@<SCITEGIC>MOL_PROPERTY
VdW6
SciTegic.value.DoubleValue
-6.507

@<SCITEGIC>MOL_PROPERTY
VdW12
SciTegic.value.DoubleValue
6.810

@<SCITEGIC>MOL_PROPERTY
Bond
SciTegic.value.DoubleValue
0.182

@<SCITEGIC>MOL_PROPERTY
Angle
SciTegic.value.DoubleValue
0.660

@<SCITEGIC>MOL_PROPERTY
Pdih
SciTegic.value.DoubleValue
1.534

@<SCITEGIC>MOL_PROPERTY
Idih
SciTegic.value.DoubleValue
0.000

@<SCITEGIC>MOL_PROPERTY
Tether
SciTegic.value.DoubleValue
0.000

@<TRIPOS>MOLECULE
guest-s12_vm2.mol2 : vm2 ligand conformer 37
          26          25           1
SMALL
USER_CHARGES
 
@<TRIPOS>ATOM
       1    N1      19.730806   18.729332   26.026801 N.4        1 MOL1        -0.4857
       2    H1      20.116297   17.772665   26.056504 H          1 MOL1         0.3650
       3    H2      18.785435   18.633928   25.626476 H          1 MOL1         0.3650
       4    C1      20.587618   19.609647   25.137352 C.3        1 MOL1         0.0209
       5    H3      21.574871   19.682382   25.600667 H          1 MOL1         0.0967
       6    H4      20.143829   20.608278   25.122019 H          1 MOL1         0.0967
       7    C2      20.738794   19.086804   23.695031 C.3        1 MOL1        -0.1378
       8    H5      21.467458   19.724829   23.179958 H          1 MOL1         0.0993
       9    H6      21.165259   18.075125   23.714909 H          1 MOL1         0.0993
      10    C3      19.398982   19.084916   22.916330 C.3        1 MOL1        -0.1338
      11    H7      18.991815   20.104872   22.877815 H          1 MOL1         0.0993
      12    H8      18.661711   18.479286   23.459604 H          1 MOL1         0.0993
      13    C4      19.519192   18.520561   21.478956 C.3        1 MOL1        -0.1338
      14    H9      19.919907   17.498137   21.516637 H          1 MOL1         0.0993
      15    H10     18.509813   18.439362   21.052303 H          1 MOL1         0.0993
      16    C5      20.391047   19.388729   20.540577 C.3        1 MOL1        -0.1313
      17    H11     21.427270   19.417125   20.902487 H          1 MOL1         0.0993
      18    H12     20.023335   20.424371   20.544656 H          1 MOL1         0.0993
      19    C6      20.381955   18.849011   19.094310 C.3        1 MOL1        -0.2328
      20    H13     19.365191   18.844247   18.680355 H          1 MOL1         0.1004
      21    H14     20.772586   17.823866   19.053178 H          1 MOL1         0.1004
      22    H15     21.007081   19.473904   18.443350 H          1 MOL1         0.1004
      23    C7      19.659607   19.320999   27.427644 C.3        1 MOL1        -0.0781
      24    H16     19.219669   20.319254   27.373941 H          1 MOL1         0.0978
      25    H17     19.040159   18.678160   28.057062 H          1 MOL1         0.0978
      26    H18     20.667884   19.382742   27.842976 H          1 MOL1         0.0978
@<TRIPOS>BOND
    1     1     2    1
    2     1     3    1
    3     1     4    1
    4     4     5    1
    5     4     6    1
    6     4     7    1
    7     7     8    1
    8     7     9    1
    9     7    10    1
   10    10    11    1
   11    10    12    1
   12    10    13    1
   13    13    14    1
   14    13    15    1
   15    13    16    1
   16    16    17    1
   17    16    18    1
   18    16    19    1
   19    19    20    1
   20    19    21    1
   21    19    22    1
   22     1    23    1
   23    23    24    1
   24    23    25    1
   25    23    26    1
@<TRIPOS>SUBSTRUCTURE
       1 MOL1            1 RESIDUE      1      MOL     
@<SCITEGIC>MOL_PROPERTY
VM2 Rank
SciTegic.value.IntegerValue
37

@<SCITEGIC>MOL_PROPERTY
Conf_Id
SciTegic.value.IntegerValue
1882

@<SCITEGIC>MOL_PROPERTY
Probability
SciTegic.value.DoubleValue
0.91

@<SCITEGIC>MOL_PROPERTY
Sum Probability
SciTegic.value.DoubleValue
70.26

@<SCITEGIC>MOL_PROPERTY
Delta G
SciTegic.value.DoubleValue
1.200

@<SCITEGIC>MOL_PROPERTY
G
SciTegic.value.DoubleValue
76.666

@<SCITEGIC>MOL_PROPERTY
E
SciTegic.value.DoubleValue
44.336

@<SCITEGIC>MOL_PROPERTY
-TS
SciTegic.value.DoubleValue
32.330

@<SCITEGIC>MOL_PROPERTY
U+W
SciTegic.value.DoubleValue
22.874

@<SCITEGIC>MOL_PROPERTY
U
SciTegic.value.DoubleValue
71.903

@<SCITEGIC>MOL_PROPERTY
W
SciTegic.value.DoubleValue
-49.029

@<SCITEGIC>MOL_PROPERTY
W(PB)
SciTegic.value.DoubleValue
-51.327

@<SCITEGIC>MOL_PROPERTY
W(SA)
SciTegic.value.DoubleValue
2.298

@<SCITEGIC>MOL_PROPERTY
Valence
SciTegic.value.DoubleValue
2.409

@<SCITEGIC>MOL_PROPERTY
Coulomb
SciTegic.value.DoubleValue
69.133

@<SCITEGIC>MOL_PROPERTY
VdW
SciTegic.value.DoubleValue
0.360

@<SCITEGIC>MOL_PROPERTY
VdW6
SciTegic.value.DoubleValue
-6.461

@<SCITEGIC>MOL_PROPERTY
VdW12
SciTegic.value.DoubleValue
6.822

@<SCITEGIC>MOL_PROPERTY
Bond
SciTegic.value.DoubleValue
0.187

@<SCITEGIC>MOL_PROPERTY
Angle
SciTegic.value.DoubleValue
0.708

@<SCITEGIC>MOL_PROPERTY
Pdih
SciTegic.value.DoubleValue
1.514

@<SCITEGIC>MOL_PROPERTY
Idih
SciTegic.value.DoubleValue
0.000

@<SCITEGIC>MOL_PROPERTY
Tether
SciTegic.value.DoubleValue
0.000

@<TRIPOS>MOLECULE
guest-s12_vm2.mol2 : vm2 ligand conformer 38
          26          25           1
SMALL
USER_CHARGES
 
@<TRIPOS>ATOM
       1    N1      19.556360   18.712782   25.910426 N.4        1 MOL1        -0.4857
       2    H1      20.285435   18.325708   26.529636 H          1 MOL1         0.3650
       3    H2      18.958357   17.911382   25.655920 H          1 MOL1         0.3650
       4    C1      20.187757   19.309869   24.669042 C.3        1 MOL1         0.0209
       5    H3      20.820605   20.144052   24.982128 H          1 MOL1         0.0967
       6    H4      19.383449   19.703101   24.042616 H          1 MOL1         0.0967
       7    C2      21.025125   18.297700   23.864149 C.3        1 MOL1        -0.1378
       8    H5      21.804914   17.879243   24.514262 H          1 MOL1         0.0993
       9    H6      20.393421   17.453403   23.560081 H          1 MOL1         0.0993
      10    C3      21.698674   18.931460   22.621262 C.3        1 MOL1        -0.1338
      11    H7      22.276297   18.158546   22.095653 H          1 MOL1         0.0993
      12    H8      22.430933   19.679083   22.956473 H          1 MOL1         0.0993
      13    C4      20.723198   19.605180   21.621291 C.3        1 MOL1        -0.1338
      14    H9      20.215582   20.451492   22.103297 H          1 MOL1         0.0993
      15    H10     21.312887   20.035565   20.800053 H          1 MOL1         0.0993
      16    C5      19.672900   18.634902   21.030539 C.3        1 MOL1        -0.1313
      17    H11     19.022135   18.249996   21.826981 H          1 MOL1         0.0993
      18    H12     20.178757   17.767110   20.584656 H          1 MOL1         0.0993
      19    C6      18.799391   19.323866   19.960464 C.3        1 MOL1        -0.2328
      20    H13     19.411366   19.687878   19.124903 H          1 MOL1         0.1004
      21    H14     18.256633   20.178718   20.384529 H          1 MOL1         0.1004
      22    H15     18.058790   18.622714   19.554384 H          1 MOL1         0.1004
      23    C7      18.744596   19.774241   26.639828 C.3        1 MOL1        -0.0781
      24    H16     17.959631   20.144683   25.976841 H          1 MOL1         0.0978
      25    H17     18.295603   19.331635   27.531815 H          1 MOL1         0.0978
      26    H18     19.404172   20.595799   26.927849 H          1 MOL1         0.0978
@<TRIPOS>BOND
    1     1     2    1
    2     1     3    1
    3     1     4    1
    4     4     5    1
    5     4     6    1
    6     4     7    1
    7     7     8    1
    8     7     9    1
    9     7    10    1
   10    10    11    1
   11    10    12    1
   12    10    13    1
   13    13    14    1
   14    13    15    1
   15    13    16    1
   16    16    17    1
   17    16    18    1
   18    16    19    1
   19    19    20    1
   20    19    21    1
   21    19    22    1
   22     1    23    1
   23    23    24    1
   24    23    25    1
   25    23    26    1
@<TRIPOS>SUBSTRUCTURE
       1 MOL1            1 RESIDUE      1      MOL     
@<SCITEGIC>MOL_PROPERTY
VM2 Rank
SciTegic.value.IntegerValue
38

@<SCITEGIC>MOL_PROPERTY
Conf_Id
SciTegic.value.IntegerValue
1352

@<SCITEGIC>MOL_PROPERTY
Probability
SciTegic.value.DoubleValue
0.90

@<SCITEGIC>MOL_PROPERTY
Sum Probability
SciTegic.value.DoubleValue
71.16

@<SCITEGIC>MOL_PROPERTY
Delta G
SciTegic.value.DoubleValue
1.208

@<SCITEGIC>MOL_PROPERTY
G
SciTegic.value.DoubleValue
76.674

@<SCITEGIC>MOL_PROPERTY
E
SciTegic.value.DoubleValue
44.177

@<SCITEGIC>MOL_PROPERTY
-TS
SciTegic.value.DoubleValue
32.497

@<SCITEGIC>MOL_PROPERTY
U+W
SciTegic.value.DoubleValue
22.715

@<SCITEGIC>MOL_PROPERTY
U
SciTegic.value.DoubleValue
72.035

@<SCITEGIC>MOL_PROPERTY
W
SciTegic.value.DoubleValue
-49.321

@<SCITEGIC>MOL_PROPERTY
W(PB)
SciTegic.value.DoubleValue
-51.620

@<SCITEGIC>MOL_PROPERTY
W(SA)
SciTegic.value.DoubleValue
2.300

@<SCITEGIC>MOL_PROPERTY
Valence
SciTegic.value.DoubleValue
2.479

@<SCITEGIC>MOL_PROPERTY
Coulomb
SciTegic.value.DoubleValue
69.414

@<SCITEGIC>MOL_PROPERTY
VdW
SciTegic.value.DoubleValue
0.143

@<SCITEGIC>MOL_PROPERTY
VdW6
SciTegic.value.DoubleValue
-6.883

@<SCITEGIC>MOL_PROPERTY
VdW12
SciTegic.value.DoubleValue
7.025

@<SCITEGIC>MOL_PROPERTY
Bond
SciTegic.value.DoubleValue
0.193

@<SCITEGIC>MOL_PROPERTY
Angle
SciTegic.value.DoubleValue
0.854

@<SCITEGIC>MOL_PROPERTY
Pdih
SciTegic.value.DoubleValue
1.432

@<SCITEGIC>MOL_PROPERTY
Idih
SciTegic.value.DoubleValue
0.000

@<SCITEGIC>MOL_PROPERTY
Tether
SciTegic.value.DoubleValue
0.000

@<TRIPOS>MOLECULE
guest-s12_vm2.mol2 : vm2 ligand conformer 39
          26          25           1
SMALL
USER_CHARGES
 
@<TRIPOS>ATOM
       1    N1      20.030637   18.753306   26.305870 N.4        1 MOL1        -0.4857
       2    H1      20.820908   18.092210   26.362734 H          1 MOL1         0.3650
       3    H2      19.201111   18.215486   26.601612 H          1 MOL1         0.3650
       4    C1      19.857595   19.240217   24.881290 C.3        1 MOL1         0.0209
       5    H3      20.757033   19.797367   24.609117 H          1 MOL1         0.0967
       6    H4      19.007503   19.926811   24.862560 H          1 MOL1         0.0967
       7    C2      19.624285   18.099166   23.872263 C.3        1 MOL1        -0.1378
       8    H5      20.478260   17.408977   23.890382 H          1 MOL1         0.0993
       9    H6      18.745303   17.519784   24.184727 H          1 MOL1         0.0993
      10    C3      19.399725   18.610713   22.429452 C.3        1 MOL1        -0.1338
      11    H7      18.537856   19.292106   22.412385 H          1 MOL1         0.0993
      12    H8      19.130921   17.753097   21.799190 H          1 MOL1         0.0993
      13    C4      20.642195   19.322972   21.836215 C.3        1 MOL1        -0.1338
      14    H9      20.924984   20.166068   22.480228 H          1 MOL1         0.0993
      15    H10     21.498531   18.634545   21.834749 H          1 MOL1         0.0993
      16    C5      20.415491   19.866901   20.404565 C.3        1 MOL1        -0.1313
      17    H11     21.296172   20.453553   20.107668 H          1 MOL1         0.0993
      18    H12     19.566903   20.565268   20.402026 H          1 MOL1         0.0993
      19    C6      20.180374   18.758395   19.353051 C.3        1 MOL1        -0.2328
      20    H13     19.240527   18.222444   19.533793 H          1 MOL1         0.1004
      21    H14     21.000016   18.028224   19.358480 H          1 MOL1         0.1004
      22    H15     20.123631   19.190822   18.345718 H          1 MOL1         0.1004
      23    C7      20.257698   19.938329   27.234293 C.3        1 MOL1        -0.0781
      24    H16     21.158202   20.471819   26.922148 H          1 MOL1         0.0978
      25    H17     19.394939   20.606062   27.181939 H          1 MOL1         0.0978
      26    H18     20.380586   19.573944   28.256675 H          1 MOL1         0.0978
@<TRIPOS>BOND
    1     1     2    1
    2     1     3    1
    3     1     4    1
    4     4     5    1
    5     4     6    1
    6     4     7    1
    7     7     8    1
    8     7     9    1
    9     7    10    1
   10    10    11    1
   11    10    12    1
   12    10    13    1
   13    13    14    1
   14    13    15    1
   15    13    16    1
   16    16    17    1
   17    16    18    1
   18    16    19    1
   19    19    20    1
   20    19    21    1
   21    19    22    1
   22     1    23    1
   23    23    24    1
   24    23    25    1
   25    23    26    1
@<TRIPOS>SUBSTRUCTURE
       1 MOL1            1 RESIDUE      1      MOL     
@<SCITEGIC>MOL_PROPERTY
VM2 Rank
SciTegic.value.IntegerValue
39

@<SCITEGIC>MOL_PROPERTY
Conf_Id
SciTegic.value.IntegerValue
1036

@<SCITEGIC>MOL_PROPERTY
Probability
SciTegic.value.DoubleValue
0.89

@<SCITEGIC>MOL_PROPERTY
Sum Probability
SciTegic.value.DoubleValue
72.06

@<SCITEGIC>MOL_PROPERTY
Delta G
SciTegic.value.DoubleValue
1.215

@<SCITEGIC>MOL_PROPERTY
G
SciTegic.value.DoubleValue
76.681

@<SCITEGIC>MOL_PROPERTY
E
SciTegic.value.DoubleValue
44.335

@<SCITEGIC>MOL_PROPERTY
-TS
SciTegic.value.DoubleValue
32.346

@<SCITEGIC>MOL_PROPERTY
U+W
SciTegic.value.DoubleValue
22.873

@<SCITEGIC>MOL_PROPERTY
U
SciTegic.value.DoubleValue
71.810

@<SCITEGIC>MOL_PROPERTY
W
SciTegic.value.DoubleValue
-48.937

@<SCITEGIC>MOL_PROPERTY
W(PB)
SciTegic.value.DoubleValue
-51.227

@<SCITEGIC>MOL_PROPERTY
W(SA)
SciTegic.value.DoubleValue
2.290

@<SCITEGIC>MOL_PROPERTY
Valence
SciTegic.value.DoubleValue
2.569

@<SCITEGIC>MOL_PROPERTY
Coulomb
SciTegic.value.DoubleValue
68.877

@<SCITEGIC>MOL_PROPERTY
VdW
SciTegic.value.DoubleValue
0.364

@<SCITEGIC>MOL_PROPERTY
VdW6
SciTegic.value.DoubleValue
-6.470

@<SCITEGIC>MOL_PROPERTY
VdW12
SciTegic.value.DoubleValue
6.834

@<SCITEGIC>MOL_PROPERTY
Bond
SciTegic.value.DoubleValue
0.191

@<SCITEGIC>MOL_PROPERTY
Angle
SciTegic.value.DoubleValue
0.752

@<SCITEGIC>MOL_PROPERTY
Pdih
SciTegic.value.DoubleValue
1.626

@<SCITEGIC>MOL_PROPERTY
Idih
SciTegic.value.DoubleValue
0.000

@<SCITEGIC>MOL_PROPERTY
Tether
SciTegic.value.DoubleValue
0.000

@<TRIPOS>MOLECULE
guest-s12_vm2.mol2 : vm2 ligand conformer 40
          26          25           1
SMALL
USER_CHARGES
 
@<TRIPOS>ATOM
       1    N1      20.818115   19.196575   25.874058 N.4        1 MOL1        -0.4857
       2    H1      21.432313   19.632337   25.170082 H          1 MOL1         0.3650
       3    H2      21.455001   18.857713   26.612584 H          1 MOL1         0.3650
       4    C1      20.075582   18.018560   25.262578 C.3        1 MOL1         0.0209
       5    H3      19.432148   17.595035   26.037898 H          1 MOL1         0.0967
       6    H4      20.821582   17.265229   24.996890 H          1 MOL1         0.0967
       7    C2      19.229521   18.348826   24.013378 C.3        1 MOL1        -0.1378
       8    H5      18.723537   17.430628   23.686883 H          1 MOL1         0.0993
       9    H6      18.436818   19.060320   24.278396 H          1 MOL1         0.0993
      10    C3      20.076740   18.909111   22.846314 C.3        1 MOL1        -0.1338
      11    H7      20.885394   18.202206   22.618332 H          1 MOL1         0.0993
      12    H8      20.550123   19.852427   23.149500 H          1 MOL1         0.0993
      13    C4      19.218714   19.154186   21.581719 C.3        1 MOL1        -0.1338
      14    H9      18.786212   18.204767   21.236952 H          1 MOL1         0.0993
      15    H10     18.371055   19.802586   21.843405 H          1 MOL1         0.0993
      16    C5      20.003026   19.815393   20.422371 C.3        1 MOL1        -0.1313
      17    H11     20.416682   20.777861   20.754558 H          1 MOL1         0.0993
      18    H12     19.301019   20.047504   19.609238 H          1 MOL1         0.0993
      19    C6      21.137649   18.927495   19.862266 C.3        1 MOL1        -0.2328
      20    H13     21.928735   18.767085   20.605120 H          1 MOL1         0.1004
      21    H14     21.599537   19.401549   18.986564 H          1 MOL1         0.1004
      22    H15     20.754637   17.947349   19.549837 H          1 MOL1         0.1004
      23    C7      19.848654   20.219855   26.454315 C.3        1 MOL1        -0.0781
      24    H16     19.224005   19.735111   27.207721 H          1 MOL1         0.0978
      25    H17     20.417884   21.031100   26.913555 H          1 MOL1         0.0978
      26    H18     19.222371   20.618311   25.653578 H          1 MOL1         0.0978
@<TRIPOS>BOND
    1     1     2    1
    2     1     3    1
    3     1     4    1
    4     4     5    1
    5     4     6    1
    6     4     7    1
    7     7     8    1
    8     7     9    1
    9     7    10    1
   10    10    11    1
   11    10    12    1
   12    10    13    1
   13    13    14    1
   14    13    15    1
   15    13    16    1
   16    16    17    1
   17    16    18    1
   18    16    19    1
   19    19    20    1
   20    19    21    1
   21    19    22    1
   22     1    23    1
   23    23    24    1
   24    23    25    1
   25    23    26    1
@<TRIPOS>SUBSTRUCTURE
       1 MOL1            1 RESIDUE      1      MOL     
@<SCITEGIC>MOL_PROPERTY
VM2 Rank
SciTegic.value.IntegerValue
40

@<SCITEGIC>MOL_PROPERTY
Conf_Id
SciTegic.value.IntegerValue
1583

@<SCITEGIC>MOL_PROPERTY
Probability
SciTegic.value.DoubleValue
0.89

@<SCITEGIC>MOL_PROPERTY
Sum Probability
SciTegic.value.DoubleValue
72.94

@<SCITEGIC>MOL_PROPERTY
Delta G
SciTegic.value.DoubleValue
1.217

@<SCITEGIC>MOL_PROPERTY
G
SciTegic.value.DoubleValue
76.683

@<SCITEGIC>MOL_PROPERTY
E
SciTegic.value.DoubleValue
44.091

@<SCITEGIC>MOL_PROPERTY
-TS
SciTegic.value.DoubleValue
32.591

@<SCITEGIC>MOL_PROPERTY
U+W
SciTegic.value.DoubleValue
22.629

@<SCITEGIC>MOL_PROPERTY
U
SciTegic.value.DoubleValue
72.184

@<SCITEGIC>MOL_PROPERTY
W
SciTegic.value.DoubleValue
-49.554

@<SCITEGIC>MOL_PROPERTY
W(PB)
SciTegic.value.DoubleValue
-51.790

@<SCITEGIC>MOL_PROPERTY
W(SA)
SciTegic.value.DoubleValue
2.236

@<SCITEGIC>MOL_PROPERTY
Valence
SciTegic.value.DoubleValue
2.592

@<SCITEGIC>MOL_PROPERTY
Coulomb
SciTegic.value.DoubleValue
69.072

@<SCITEGIC>MOL_PROPERTY
VdW
SciTegic.value.DoubleValue
0.519

@<SCITEGIC>MOL_PROPERTY
VdW6
SciTegic.value.DoubleValue
-7.380

@<SCITEGIC>MOL_PROPERTY
VdW12
SciTegic.value.DoubleValue
7.899

@<SCITEGIC>MOL_PROPERTY
Bond
SciTegic.value.DoubleValue
0.219

@<SCITEGIC>MOL_PROPERTY
Angle
SciTegic.value.DoubleValue
0.818

@<SCITEGIC>MOL_PROPERTY
Pdih
SciTegic.value.DoubleValue
1.555

@<SCITEGIC>MOL_PROPERTY
Idih
SciTegic.value.DoubleValue
0.000

@<SCITEGIC>MOL_PROPERTY
Tether
SciTegic.value.DoubleValue
0.000

@<TRIPOS>MOLECULE
guest-s12_vm2.mol2 : vm2 ligand conformer 41
          26          25           1
SMALL
USER_CHARGES
 
@<TRIPOS>ATOM
       1    N1      19.924640   18.742420   26.302095 N.4        1 MOL1        -0.4857
       2    H1      20.823194   18.381910   26.659110 H          1 MOL1         0.3650
       3    H2      19.282872   17.934394   26.308196 H          1 MOL1         0.3650
       4    C1      20.094732   19.264520   24.889672 C.3        1 MOL1         0.0209
       5    H3      20.787089   20.109369   24.925598 H          1 MOL1         0.0967
       6    H4      19.122318   19.629612   24.551143 H          1 MOL1         0.0967
       7    C2      20.624707   18.201772   23.907703 C.3        1 MOL1        -0.1378
       8    H5      21.578824   17.810442   24.285133 H          1 MOL1         0.0993
       9    H6      19.929311   17.352635   23.870909 H          1 MOL1         0.0993
      10    C3      20.841372   18.758593   22.480532 C.3        1 MOL1        -0.1338
      11    H7      21.321853   17.977822   21.876773 H          1 MOL1         0.0993
      12    H8      21.546298   19.600620   22.518979 H          1 MOL1         0.0993
      13    C4      19.524973   19.208544   21.796708 C.3        1 MOL1        -0.1338
      14    H9      18.828118   18.360926   21.740323 H          1 MOL1         0.0993
      15    H10     19.032892   19.972260   22.413252 H          1 MOL1         0.0993
      16    C5      19.736358   19.797290   20.380530 C.3        1 MOL1        -0.1313
      17    H11     20.424138   20.652923   20.432256 H          1 MOL1         0.0993
      18    H12     18.778119   20.195693   20.018643 H          1 MOL1         0.0993
      19    C6      20.263768   18.766799   19.355995 C.3        1 MOL1        -0.2328
      20    H13     21.277596   18.430728   19.605854 H          1 MOL1         0.1004
      21    H14     20.302175   19.208958   18.352026 H          1 MOL1         0.1004
      22    H15     19.610411   17.885925   19.309324 H          1 MOL1         0.1004
      23    C7      19.397450   19.850061   27.203765 C.3        1 MOL1        -0.0781
      24    H16     20.108357   20.679254   27.207217 H          1 MOL1         0.0978
      25    H17     18.431605   20.192059   26.825432 H          1 MOL1         0.0978
      26    H18     19.279654   19.460986   28.217613 H          1 MOL1         0.0978
@<TRIPOS>BOND
    1     1     2    1
    2     1     3    1
    3     1     4    1
    4     4     5    1
    5     4     6    1
    6     4     7    1
    7     7     8    1
    8     7     9    1
    9     7    10    1
   10    10    11    1
   11    10    12    1
   12    10    13    1
   13    13    14    1
   14    13    15    1
   15    13    16    1
   16    16    17    1
   17    16    18    1
   18    16    19    1
   19    19    20    1
   20    19    21    1
   21    19    22    1
   22     1    23    1
   23    23    24    1
   24    23    25    1
   25    23    26    1
@<TRIPOS>SUBSTRUCTURE
       1 MOL1            1 RESIDUE      1      MOL     
@<SCITEGIC>MOL_PROPERTY
VM2 Rank
SciTegic.value.IntegerValue
41

@<SCITEGIC>MOL_PROPERTY
Conf_Id
SciTegic.value.IntegerValue
1632

@<SCITEGIC>MOL_PROPERTY
Probability
SciTegic.value.DoubleValue
0.88

@<SCITEGIC>MOL_PROPERTY
Sum Probability
SciTegic.value.DoubleValue
73.82

@<SCITEGIC>MOL_PROPERTY
Delta G
SciTegic.value.DoubleValue
1.221

@<SCITEGIC>MOL_PROPERTY
G
SciTegic.value.DoubleValue
76.687

@<SCITEGIC>MOL_PROPERTY
E
SciTegic.value.DoubleValue
44.341

@<SCITEGIC>MOL_PROPERTY
-TS
SciTegic.value.DoubleValue
32.346

@<SCITEGIC>MOL_PROPERTY
U+W
SciTegic.value.DoubleValue
22.879

@<SCITEGIC>MOL_PROPERTY
U
SciTegic.value.DoubleValue
71.810

@<SCITEGIC>MOL_PROPERTY
W
SciTegic.value.DoubleValue
-48.931

@<SCITEGIC>MOL_PROPERTY
W(PB)
SciTegic.value.DoubleValue
-51.257

@<SCITEGIC>MOL_PROPERTY
W(SA)
SciTegic.value.DoubleValue
2.326

@<SCITEGIC>MOL_PROPERTY
Valence
SciTegic.value.DoubleValue
2.568

@<SCITEGIC>MOL_PROPERTY
Coulomb
SciTegic.value.DoubleValue
68.877

@<SCITEGIC>MOL_PROPERTY
VdW
SciTegic.value.DoubleValue
0.364

@<SCITEGIC>MOL_PROPERTY
VdW6
SciTegic.value.DoubleValue
-6.470

@<SCITEGIC>MOL_PROPERTY
VdW12
SciTegic.value.DoubleValue
6.834

@<SCITEGIC>MOL_PROPERTY
Bond
SciTegic.value.DoubleValue
0.191

@<SCITEGIC>MOL_PROPERTY
Angle
SciTegic.value.DoubleValue
0.752

@<SCITEGIC>MOL_PROPERTY
Pdih
SciTegic.value.DoubleValue
1.626

@<SCITEGIC>MOL_PROPERTY
Idih
SciTegic.value.DoubleValue
0.000

@<SCITEGIC>MOL_PROPERTY
Tether
SciTegic.value.DoubleValue
0.000

@<TRIPOS>MOLECULE
guest-s12_vm2.mol2 : vm2 ligand conformer 42
          26          25           1
SMALL
USER_CHARGES
 
@<TRIPOS>ATOM
       1    N1      20.475933   19.809496   25.787633 N.4        1 MOL1        -0.4857
       2    H1      20.452135   20.500673   26.554177 H          1 MOL1         0.3650
       3    H2      21.023106   20.259228   25.038656 H          1 MOL1         0.3650
       4    C1      19.059498   19.533906   25.307083 C.3        1 MOL1         0.0209
       5    H3      18.586461   20.500346   25.115134 H          1 MOL1         0.0967
       6    H4      18.520179   19.053240   26.127201 H          1 MOL1         0.0967
       7    C2      18.950982   18.661463   24.037172 C.3        1 MOL1        -0.1378
       8    H5      19.368915   17.665483   24.232672 H          1 MOL1         0.0993
       9    H6      17.886680   18.510825   23.813080 H          1 MOL1         0.0993
      10    C3      19.648689   19.296818   22.811031 C.3        1 MOL1        -0.1338
      11    H7      20.719285   19.413558   23.020831 H          1 MOL1         0.0993
      12    H8      19.242772   20.303358   22.639320 H          1 MOL1         0.0993
      13    C4      19.460607   18.439137   21.536442 C.3        1 MOL1        -0.1338
      14    H9      19.907506   17.446860   21.688127 H          1 MOL1         0.0993
      15    H10     18.387267   18.272158   21.370796 H          1 MOL1         0.0993
      16    C5      20.058568   19.085800   20.263349 C.3        1 MOL1        -0.1313
      17    H11     19.598669   20.069629   20.094863 H          1 MOL1         0.0993
      18    H12     19.789094   18.468472   19.394922 H          1 MOL1         0.0993
      19    C6      21.596698   19.232207   20.311618 C.3        1 MOL1        -0.2328
      20    H13     21.910758   19.940493   21.088141 H          1 MOL1         0.1004
      21    H14     21.977053   19.605929   19.352145 H          1 MOL1         0.1004
      22    H15     22.079496   18.266588   20.510326 H          1 MOL1         0.1004
      23    C7      21.157026   18.531172   26.262671 C.3        1 MOL1        -0.0781
      24    H16     21.234025   17.831547   25.427938 H          1 MOL1         0.0978
      25    H17     22.156001   18.774299   26.631422 H          1 MOL1         0.0978
      26    H18     20.565406   18.086820   27.065992 H          1 MOL1         0.0978
@<TRIPOS>BOND
    1     1     2    1
    2     1     3    1
    3     1     4    1
    4     4     5    1
    5     4     6    1
    6     4     7    1
    7     7     8    1
    8     7     9    1
    9     7    10    1
   10    10    11    1
   11    10    12    1
   12    10    13    1
   13    13    14    1
   14    13    15    1
   15    13    16    1
   16    16    17    1
   17    16    18    1
   18    16    19    1
   19    19    20    1
   20    19    21    1
   21    19    22    1
   22     1    23    1
   23    23    24    1
   24    23    25    1
   25    23    26    1
@<TRIPOS>SUBSTRUCTURE
       1 MOL1            1 RESIDUE      1      MOL     
@<SCITEGIC>MOL_PROPERTY
VM2 Rank
SciTegic.value.IntegerValue
42

@<SCITEGIC>MOL_PROPERTY
Conf_Id
SciTegic.value.IntegerValue
1049

@<SCITEGIC>MOL_PROPERTY
Probability
SciTegic.value.DoubleValue
0.84

@<SCITEGIC>MOL_PROPERTY
Sum Probability
SciTegic.value.DoubleValue
74.67

@<SCITEGIC>MOL_PROPERTY
Delta G
SciTegic.value.DoubleValue
1.246

@<SCITEGIC>MOL_PROPERTY
G
SciTegic.value.DoubleValue
76.712

@<SCITEGIC>MOL_PROPERTY
E
SciTegic.value.DoubleValue
44.127

@<SCITEGIC>MOL_PROPERTY
-TS
SciTegic.value.DoubleValue
32.586

@<SCITEGIC>MOL_PROPERTY
U+W
SciTegic.value.DoubleValue
22.665

@<SCITEGIC>MOL_PROPERTY
U
SciTegic.value.DoubleValue
72.301

@<SCITEGIC>MOL_PROPERTY
W
SciTegic.value.DoubleValue
-49.636

@<SCITEGIC>MOL_PROPERTY
W(PB)
SciTegic.value.DoubleValue
-51.894

@<SCITEGIC>MOL_PROPERTY
W(SA)
SciTegic.value.DoubleValue
2.258

@<SCITEGIC>MOL_PROPERTY
Valence
SciTegic.value.DoubleValue
2.588

@<SCITEGIC>MOL_PROPERTY
Coulomb
SciTegic.value.DoubleValue
69.202

@<SCITEGIC>MOL_PROPERTY
VdW
SciTegic.value.DoubleValue
0.511

@<SCITEGIC>MOL_PROPERTY
VdW6
SciTegic.value.DoubleValue
-7.408

@<SCITEGIC>MOL_PROPERTY
VdW12
SciTegic.value.DoubleValue
7.919

@<SCITEGIC>MOL_PROPERTY
Bond
SciTegic.value.DoubleValue
0.221

@<SCITEGIC>MOL_PROPERTY
Angle
SciTegic.value.DoubleValue
0.820

@<SCITEGIC>MOL_PROPERTY
Pdih
SciTegic.value.DoubleValue
1.547

@<SCITEGIC>MOL_PROPERTY
Idih
SciTegic.value.DoubleValue
0.000

@<SCITEGIC>MOL_PROPERTY
Tether
SciTegic.value.DoubleValue
0.000

@<TRIPOS>MOLECULE
guest-s12_vm2.mol2 : vm2 ligand conformer 43
          26          25           1
SMALL
USER_CHARGES
 
@<TRIPOS>ATOM
       1    N1      20.241744   18.781667   26.044942 N.4        1 MOL1        -0.4857
       2    H1      21.212553   18.882175   25.712502 H          1 MOL1         0.3650
       3    H2      20.056471   17.766639   26.054503 H          1 MOL1         0.3650
       4    C1      19.289123   19.476895   25.091332 C.3        1 MOL1         0.0209
       5    H3      19.521898   20.544691   25.099849 H          1 MOL1         0.0967
       6    H4      18.277576   19.345339   25.483872 H          1 MOL1         0.0967
       7    C2      19.348074   18.944487   23.645795 C.3        1 MOL1        -0.1378
       8    H5      19.134413   17.867405   23.643094 H          1 MOL1         0.0993
       9    H6      18.543461   19.425802   23.076357 H          1 MOL1         0.0993
      10    C3      20.711836   19.218750   22.962857 C.3        1 MOL1        -0.1338
      11    H7      21.516306   18.770503   23.560692 H          1 MOL1         0.0993
      12    H8      20.906392   20.300152   22.945744 H          1 MOL1         0.0993
      13    C4      20.808952   18.652164   21.524613 C.3        1 MOL1        -0.1338
      14    H9      21.841315   18.779357   21.170326 H          1 MOL1         0.0993
      15    H10     20.621109   17.569677   21.541337 H          1 MOL1         0.0993
      16    C5      19.847805   19.333378   20.521341 C.3        1 MOL1        -0.1313
      17    H11     19.997816   20.421850   20.543872 H          1 MOL1         0.0993
      18    H12     18.804405   19.149529   20.809534 H          1 MOL1         0.0993
      19    C6      20.066885   18.817086   19.083107 C.3        1 MOL1        -0.2328
      20    H13     19.375757   19.307767   18.385543 H          1 MOL1         0.1004
      21    H14     19.894899   17.734550   19.021919 H          1 MOL1         0.1004
      22    H15     21.090170   19.020481   18.741482 H          1 MOL1         0.1004
      23    C7      20.093581   19.365574   27.443014 C.3        1 MOL1        -0.0781
      24    H16     19.067077   19.219275   27.786267 H          1 MOL1         0.0978
      25    H17     20.784552   18.856790   28.118900 H          1 MOL1         0.0978
      26    H18     20.325295   20.432509   27.413021 H          1 MOL1         0.0978
@<TRIPOS>BOND
    1     1     2    1
    2     1     3    1
    3     1     4    1
    4     4     5    1
    5     4     6    1
    6     4     7    1
    7     7     8    1
    8     7     9    1
    9     7    10    1
   10    10    11    1
   11    10    12    1
   12    10    13    1
   13    13    14    1
   14    13    15    1
   15    13    16    1
   16    16    17    1
   17    16    18    1
   18    16    19    1
   19    19    20    1
   20    19    21    1
   21    19    22    1
   22     1    23    1
   23    23    24    1
   24    23    25    1
   25    23    26    1
@<TRIPOS>SUBSTRUCTURE
       1 MOL1            1 RESIDUE      1      MOL     
@<SCITEGIC>MOL_PROPERTY
VM2 Rank
SciTegic.value.IntegerValue
43

@<SCITEGIC>MOL_PROPERTY
Conf_Id
SciTegic.value.IntegerValue
1554

@<SCITEGIC>MOL_PROPERTY
Probability
SciTegic.value.DoubleValue
0.84

@<SCITEGIC>MOL_PROPERTY
Sum Probability
SciTegic.value.DoubleValue
75.50

@<SCITEGIC>MOL_PROPERTY
Delta G
SciTegic.value.DoubleValue
1.253

@<SCITEGIC>MOL_PROPERTY
G
SciTegic.value.DoubleValue
76.719

@<SCITEGIC>MOL_PROPERTY
E
SciTegic.value.DoubleValue
44.389

@<SCITEGIC>MOL_PROPERTY
-TS
SciTegic.value.DoubleValue
32.330

@<SCITEGIC>MOL_PROPERTY
U+W
SciTegic.value.DoubleValue
22.927

@<SCITEGIC>MOL_PROPERTY
U
SciTegic.value.DoubleValue
71.903

@<SCITEGIC>MOL_PROPERTY
W
SciTegic.value.DoubleValue
-48.976

@<SCITEGIC>MOL_PROPERTY
W(PB)
SciTegic.value.DoubleValue
-51.297

@<SCITEGIC>MOL_PROPERTY
W(SA)
SciTegic.value.DoubleValue
2.321

@<SCITEGIC>MOL_PROPERTY
Valence
SciTegic.value.DoubleValue
2.409

@<SCITEGIC>MOL_PROPERTY
Coulomb
SciTegic.value.DoubleValue
69.133

@<SCITEGIC>MOL_PROPERTY
VdW
SciTegic.value.DoubleValue
0.360

@<SCITEGIC>MOL_PROPERTY
VdW6
SciTegic.value.DoubleValue
-6.461

@<SCITEGIC>MOL_PROPERTY
VdW12
SciTegic.value.DoubleValue
6.822

@<SCITEGIC>MOL_PROPERTY
Bond
SciTegic.value.DoubleValue
0.187

@<SCITEGIC>MOL_PROPERTY
Angle
SciTegic.value.DoubleValue
0.708

@<SCITEGIC>MOL_PROPERTY
Pdih
SciTegic.value.DoubleValue
1.514

@<SCITEGIC>MOL_PROPERTY
Idih
SciTegic.value.DoubleValue
0.000

@<SCITEGIC>MOL_PROPERTY
Tether
SciTegic.value.DoubleValue
0.000

@<TRIPOS>MOLECULE
guest-s12_vm2.mol2 : vm2 ligand conformer 44
          26          25           1
SMALL
USER_CHARGES
 
@<TRIPOS>ATOM
       1    N1      19.096027   19.019216   25.813199 N.4        1 MOL1        -0.4857
       2    H1      18.491362   18.552420   26.507716 H          1 MOL1         0.3650
       3    H2      18.456780   19.326065   25.064924 H          1 MOL1         0.3650
       4    C1      20.103656   18.021472   25.263499 C.3        1 MOL1         0.0209
       5    H3      19.547025   17.134060   24.951606 H          1 MOL1         0.0967
       6    H4      20.763985   17.732080   26.084911 H          1 MOL1         0.0967
       7    C2      20.950058   18.526145   24.074252 C.3        1 MOL1        -0.1378
       8    H5      21.560759   19.382191   24.388998 H          1 MOL1         0.0993
       9    H6      21.653978   17.732593   23.790568 H          1 MOL1         0.0993
      10    C3      20.090317   18.910633   22.846754 C.3        1 MOL1        -0.1338
      11    H7      19.414734   19.735574   23.109277 H          1 MOL1         0.0993
      12    H8      19.460533   18.055549   22.567801 H          1 MOL1         0.0993
      13    C4      20.966846   19.334435   21.643605 C.3        1 MOL1        -0.1338
      14    H9      21.644160   20.140050   21.959292 H          1 MOL1         0.0993
      15    H10     21.606780   18.495547   21.336898 H          1 MOL1         0.0993
      16    C5      20.147462   19.830248   20.427378 C.3        1 MOL1        -0.1313
      17    H11     20.842662   20.206341   19.663752 H          1 MOL1         0.0993
      18    H12     19.524139   20.685835   20.722747 H          1 MOL1         0.0993
      19    C6      19.259656   18.733814   19.795645 C.3        1 MOL1        -0.2328
      20    H13     18.467754   18.410295   20.482382 H          1 MOL1         0.1004
      21    H14     19.855269   17.854519   19.518014 H          1 MOL1         0.1004
      22    H15     18.773425   19.110045   18.886276 H          1 MOL1         0.1004
      23    C7      19.793979   20.214037   26.452667 C.3        1 MOL1        -0.0781
      24    H16     20.380473   20.737511   25.694923 H          1 MOL1         0.0978
      25    H17     19.040897   20.889055   26.865291 H          1 MOL1         0.0978
      26    H18     20.449986   19.860972   27.251283 H          1 MOL1         0.0978
@<TRIPOS>BOND
    1     1     2    1
    2     1     3    1
    3     1     4    1
    4     4     5    1
    5     4     6    1
    6     4     7    1
    7     7     8    1
    8     7     9    1
    9     7    10    1
   10    10    11    1
   11    10    12    1
   12    10    13    1
   13    13    14    1
   14    13    15    1
   15    13    16    1
   16    16    17    1
   17    16    18    1
   18    16    19    1
   19    19    20    1
   20    19    21    1
   21    19    22    1
   22     1    23    1
   23    23    24    1
   24    23    25    1
   25    23    26    1
@<TRIPOS>SUBSTRUCTURE
       1 MOL1            1 RESIDUE      1      MOL     
@<SCITEGIC>MOL_PROPERTY
VM2 Rank
SciTegic.value.IntegerValue
44

@<SCITEGIC>MOL_PROPERTY
Conf_Id
SciTegic.value.IntegerValue
1848

@<SCITEGIC>MOL_PROPERTY
Probability
SciTegic.value.DoubleValue
0.81

@<SCITEGIC>MOL_PROPERTY
Sum Probability
SciTegic.value.DoubleValue
76.31

@<SCITEGIC>MOL_PROPERTY
Delta G
SciTegic.value.DoubleValue
1.272

@<SCITEGIC>MOL_PROPERTY
G
SciTegic.value.DoubleValue
76.738

@<SCITEGIC>MOL_PROPERTY
E
SciTegic.value.DoubleValue
44.147

@<SCITEGIC>MOL_PROPERTY
-TS
SciTegic.value.DoubleValue
32.591

@<SCITEGIC>MOL_PROPERTY
U+W
SciTegic.value.DoubleValue
22.685

@<SCITEGIC>MOL_PROPERTY
U
SciTegic.value.DoubleValue
72.183

@<SCITEGIC>MOL_PROPERTY
W
SciTegic.value.DoubleValue
-49.498

@<SCITEGIC>MOL_PROPERTY
W(PB)
SciTegic.value.DoubleValue
-51.756

@<SCITEGIC>MOL_PROPERTY
W(SA)
SciTegic.value.DoubleValue
2.258

@<SCITEGIC>MOL_PROPERTY
Valence
SciTegic.value.DoubleValue
2.592

@<SCITEGIC>MOL_PROPERTY
Coulomb
SciTegic.value.DoubleValue
69.072

@<SCITEGIC>MOL_PROPERTY
VdW
SciTegic.value.DoubleValue
0.519

@<SCITEGIC>MOL_PROPERTY
VdW6
SciTegic.value.DoubleValue
-7.379

@<SCITEGIC>MOL_PROPERTY
VdW12
SciTegic.value.DoubleValue
7.898

@<SCITEGIC>MOL_PROPERTY
Bond
SciTegic.value.DoubleValue
0.219

@<SCITEGIC>MOL_PROPERTY
Angle
SciTegic.value.DoubleValue
0.818

@<SCITEGIC>MOL_PROPERTY
Pdih
SciTegic.value.DoubleValue
1.555

@<SCITEGIC>MOL_PROPERTY
Idih
SciTegic.value.DoubleValue
0.000

@<SCITEGIC>MOL_PROPERTY
Tether
SciTegic.value.DoubleValue
0.000

@<TRIPOS>MOLECULE
guest-s12_vm2.mol2 : vm2 ligand conformer 45
          26          25           1
SMALL
USER_CHARGES
 
@<TRIPOS>ATOM
       1    N1      20.429341   19.225475   26.054416 N.4        1 MOL1        -0.4857
       2    H1      21.362476   19.291921   25.621304 H          1 MOL1         0.3650
       3    H2      20.606298   18.934799   27.029112 H          1 MOL1         0.3650
       4    C1      19.600550   18.163119   25.349079 C.3        1 MOL1         0.0209
       5    H3      18.620812   18.132745   25.832483 H          1 MOL1         0.0967
       6    H4      20.089680   17.200854   25.520562 H          1 MOL1         0.0967
       7    C2      19.420518   18.370560   23.829378 C.3        1 MOL1        -0.1378
       8    H5      18.789335   17.559689   23.442592 H          1 MOL1         0.0993
       9    H6      18.871047   19.302983   23.652042 H          1 MOL1         0.0993
      10    C3      20.768207   18.381495   23.065370 C.3        1 MOL1        -0.1338
      11    H7      21.339771   17.483078   23.336899 H          1 MOL1         0.0993
      12    H8      21.373045   19.241690   23.382264 H          1 MOL1         0.0993
      13    C4      20.604483   18.413001   21.525807 C.3        1 MOL1        -0.1338
      14    H9      21.597189   18.302942   21.067724 H          1 MOL1         0.0993
      15    H10     20.017179   17.543606   21.199411 H          1 MOL1         0.0993
      16    C5      19.949581   19.712536   21.000052 C.3        1 MOL1        -0.1313
      17    H11     20.507532   20.584817   21.368282 H          1 MOL1         0.0993
      18    H12     18.925306   19.804040   21.385071 H          1 MOL1         0.0993
      19    C6      19.908904   19.745826   19.457269 C.3        1 MOL1        -0.2328
      20    H13     19.439076   20.672021   19.101690 H          1 MOL1         0.1004
      21    H14     19.331557   18.901095   19.059399 H          1 MOL1         0.1004
      22    H15     20.920669   19.697939   19.033923 H          1 MOL1         0.1004
      23    C7      19.726416   20.577987   26.035628 C.3        1 MOL1        -0.0781
      24    H16     18.749749   20.481276   26.514747 H          1 MOL1         0.0978
      25    H17     20.334090   21.304102   26.580174 H          1 MOL1         0.0978
      26    H18     19.601695   20.905648   25.001580 H          1 MOL1         0.0978
@<TRIPOS>BOND
    1     1     2    1
    2     1     3    1
    3     1     4    1
    4     4     5    1
    5     4     6    1
    6     4     7    1
    7     7     8    1
    8     7     9    1
    9     7    10    1
   10    10    11    1
   11    10    12    1
   12    10    13    1
   13    13    14    1
   14    13    15    1
   15    13    16    1
   16    16    17    1
   17    16    18    1
   18    16    19    1
   19    19    20    1
   20    19    21    1
   21    19    22    1
   22     1    23    1
   23    23    24    1
   24    23    25    1
   25    23    26    1
@<TRIPOS>SUBSTRUCTURE
       1 MOL1            1 RESIDUE      1      MOL     
@<SCITEGIC>MOL_PROPERTY
VM2 Rank
SciTegic.value.IntegerValue
45

@<SCITEGIC>MOL_PROPERTY
Conf_Id
SciTegic.value.IntegerValue
271

@<SCITEGIC>MOL_PROPERTY
Probability
SciTegic.value.DoubleValue
0.78

@<SCITEGIC>MOL_PROPERTY
Sum Probability
SciTegic.value.DoubleValue
77.09

@<SCITEGIC>MOL_PROPERTY
Delta G
SciTegic.value.DoubleValue
1.293

@<SCITEGIC>MOL_PROPERTY
G
SciTegic.value.DoubleValue
76.759

@<SCITEGIC>MOL_PROPERTY
E
SciTegic.value.DoubleValue
44.168

@<SCITEGIC>MOL_PROPERTY
-TS
SciTegic.value.DoubleValue
32.591

@<SCITEGIC>MOL_PROPERTY
U+W
SciTegic.value.DoubleValue
22.706

@<SCITEGIC>MOL_PROPERTY
U
SciTegic.value.DoubleValue
72.280

@<SCITEGIC>MOL_PROPERTY
W
SciTegic.value.DoubleValue
-49.574

@<SCITEGIC>MOL_PROPERTY
W(PB)
SciTegic.value.DoubleValue
-51.820

@<SCITEGIC>MOL_PROPERTY
W(SA)
SciTegic.value.DoubleValue
2.246

@<SCITEGIC>MOL_PROPERTY
Valence
SciTegic.value.DoubleValue
2.616

@<SCITEGIC>MOL_PROPERTY
Coulomb
SciTegic.value.DoubleValue
69.198

@<SCITEGIC>MOL_PROPERTY
VdW
SciTegic.value.DoubleValue
0.465

@<SCITEGIC>MOL_PROPERTY
VdW6
SciTegic.value.DoubleValue
-7.468

@<SCITEGIC>MOL_PROPERTY
VdW12
SciTegic.value.DoubleValue
7.934

@<SCITEGIC>MOL_PROPERTY
Bond
SciTegic.value.DoubleValue
0.224

@<SCITEGIC>MOL_PROPERTY
Angle
SciTegic.value.DoubleValue
0.811

@<SCITEGIC>MOL_PROPERTY
Pdih
SciTegic.value.DoubleValue
1.582

@<SCITEGIC>MOL_PROPERTY
Idih
SciTegic.value.DoubleValue
0.000

@<SCITEGIC>MOL_PROPERTY
Tether
SciTegic.value.DoubleValue
0.000

@<TRIPOS>MOLECULE
guest-s12_vm2.mol2 : vm2 ligand conformer 46
          26          25           1
SMALL
USER_CHARGES
 
@<TRIPOS>ATOM
       1    N1      19.318040   19.696851   25.746535 N.4        1 MOL1        -0.4857
       2    H1      18.748662   20.038332   24.957976 H          1 MOL1         0.3650
       3    H2      19.154528   20.374228   26.508313 H          1 MOL1         0.3650
       4    C1      20.791260   19.702155   25.368692 C.3        1 MOL1         0.0209
       5    H3      21.353909   19.328446   26.227915 H          1 MOL1         0.0967
       6    H4      21.081906   20.742845   25.204054 H          1 MOL1         0.0967
       7    C2      21.154600   18.875778   24.115421 C.3        1 MOL1        -0.1378
       8    H5      22.241054   18.934383   23.967671 H          1 MOL1         0.0993
       9    H6      20.923528   17.816640   24.287759 H          1 MOL1         0.0993
      10    C3      20.435495   19.373443   22.839056 C.3        1 MOL1        -0.1338
      11    H7      20.650963   20.440500   22.689592 H          1 MOL1         0.0993
      12    H8      19.350419   19.280304   22.972297 H          1 MOL1         0.0993
      13    C4      20.874370   18.577008   21.586599 C.3        1 MOL1        -0.1338
      14    H9      21.968689   18.621278   21.497815 H          1 MOL1         0.0993
      15    H10     20.617675   17.516150   21.713210 H          1 MOL1         0.0993
      16    C5      20.253748   19.105066   20.270366 C.3        1 MOL1        -0.1313
      17    H11     20.697538   18.557415   19.427156 H          1 MOL1         0.0993
      18    H12     20.525861   20.160292   20.128009 H          1 MOL1         0.0993
      19    C6      18.716751   18.951619   20.209531 C.3        1 MOL1        -0.2328
      20    H13     18.416611   17.909625   20.380301 H          1 MOL1         0.1004
      21    H14     18.339729   19.251640   19.223241 H          1 MOL1         0.1004
      22    H15     18.218212   19.580541   20.957332 H          1 MOL1         0.1004
      23    C7      18.863738   18.308081   26.180800 C.3        1 MOL1        -0.0781
      24    H16     19.471785   17.980011   27.026633 H          1 MOL1         0.0978
      25    H17     17.813252   18.352000   26.476762 H          1 MOL1         0.0978
      26    H18     18.981550   17.612687   25.347296 H          1 MOL1         0.0978
@<TRIPOS>BOND
    1     1     2    1
    2     1     3    1
    3     1     4    1
    4     4     5    1
    5     4     6    1
    6     4     7    1
    7     7     8    1
    8     7     9    1
    9     7    10    1
   10    10    11    1
   11    10    12    1
   12    10    13    1
   13    13    14    1
   14    13    15    1
   15    13    16    1
   16    16    17    1
   17    16    18    1
   18    16    19    1
   19    19    20    1
   20    19    21    1
   21    19    22    1
   22     1    23    1
   23    23    24    1
   24    23    25    1
   25    23    26    1
@<TRIPOS>SUBSTRUCTURE
       1 MOL1            1 RESIDUE      1      MOL     
@<SCITEGIC>MOL_PROPERTY
VM2 Rank
SciTegic.value.IntegerValue
46

@<SCITEGIC>MOL_PROPERTY
Conf_Id
SciTegic.value.IntegerValue
1563

@<SCITEGIC>MOL_PROPERTY
Probability
SciTegic.value.DoubleValue
0.78

@<SCITEGIC>MOL_PROPERTY
Sum Probability
SciTegic.value.DoubleValue
77.87

@<SCITEGIC>MOL_PROPERTY
Delta G
SciTegic.value.DoubleValue
1.293

@<SCITEGIC>MOL_PROPERTY
G
SciTegic.value.DoubleValue
76.759

@<SCITEGIC>MOL_PROPERTY
E
SciTegic.value.DoubleValue
44.174

@<SCITEGIC>MOL_PROPERTY
-TS
SciTegic.value.DoubleValue
32.586

@<SCITEGIC>MOL_PROPERTY
U+W
SciTegic.value.DoubleValue
22.712

@<SCITEGIC>MOL_PROPERTY
U
SciTegic.value.DoubleValue
72.301

@<SCITEGIC>MOL_PROPERTY
W
SciTegic.value.DoubleValue
-49.589

@<SCITEGIC>MOL_PROPERTY
W(PB)
SciTegic.value.DoubleValue
-51.856

@<SCITEGIC>MOL_PROPERTY
W(SA)
SciTegic.value.DoubleValue
2.267

@<SCITEGIC>MOL_PROPERTY
Valence
SciTegic.value.DoubleValue
2.588

@<SCITEGIC>MOL_PROPERTY
Coulomb
SciTegic.value.DoubleValue
69.202

@<SCITEGIC>MOL_PROPERTY
VdW
SciTegic.value.DoubleValue
0.511

@<SCITEGIC>MOL_PROPERTY
VdW6
SciTegic.value.DoubleValue
-7.409

@<SCITEGIC>MOL_PROPERTY
VdW12
SciTegic.value.DoubleValue
7.919

@<SCITEGIC>MOL_PROPERTY
Bond
SciTegic.value.DoubleValue
0.221

@<SCITEGIC>MOL_PROPERTY
Angle
SciTegic.value.DoubleValue
0.820

@<SCITEGIC>MOL_PROPERTY
Pdih
SciTegic.value.DoubleValue
1.547

@<SCITEGIC>MOL_PROPERTY
Idih
SciTegic.value.DoubleValue
0.000

@<SCITEGIC>MOL_PROPERTY
Tether
SciTegic.value.DoubleValue
0.000

@<TRIPOS>MOLECULE
guest-s12_vm2.mol2 : vm2 ligand conformer 47
          26          25           1
SMALL
USER_CHARGES
 
@<TRIPOS>ATOM
       1    N1      19.779921   18.475813   26.047880 N.4        1 MOL1        -0.4857
       2    H1      20.669203   17.977534   26.208271 H          1 MOL1         0.3650
       3    H2      19.106920   17.749822   25.756748 H          1 MOL1         0.3650
       4    C1      19.948163   19.504591   24.947814 C.3        1 MOL1         0.0209
       5    H3      20.672192   20.247577   25.291658 H          1 MOL1         0.0967
       6    H4      18.985819   20.002310   24.804112 H          1 MOL1         0.0967
       7    C2      20.421674   18.898356   23.614390 C.3        1 MOL1        -0.1378
       8    H5      21.380818   18.385750   23.766252 H          1 MOL1         0.0993
       9    H6      19.696985   18.141498   23.288605 H          1 MOL1         0.0993
      10    C3      20.579127   19.985858   22.525801 C.3        1 MOL1        -0.1338
      11    H7      21.246941   20.773173   22.902302 H          1 MOL1         0.0993
      12    H8      19.611721   20.473095   22.344732 H          1 MOL1         0.0993
      13    C4      21.160242   19.449707   21.191651 C.3        1 MOL1        -0.1338
      14    H9      21.275548   20.291042   20.494438 H          1 MOL1         0.0993
      15    H10     22.174859   19.068320   21.371501 H          1 MOL1         0.0993
      16    C5      20.324714   18.340121   20.503141 C.3        1 MOL1        -0.1313
      17    H11     20.298615   17.439275   21.130740 H          1 MOL1         0.0993
      18    H12     20.834295   18.043999   19.575553 H          1 MOL1         0.0993
      19    C6      18.883009   18.779043   20.159873 C.3        1 MOL1        -0.2328
      20    H13     18.294952   18.972971   21.065509 H          1 MOL1         0.1004
      21    H14     18.366602   17.993675   19.592973 H          1 MOL1         0.1004
      22    H15     18.883030   19.690133   19.547619 H          1 MOL1         0.1004
      23    C7      19.311150   19.156510   27.326450 C.3        1 MOL1        -0.0781
      24    H16     18.353709   19.648398   27.141214 H          1 MOL1         0.0978
      25    H17     19.194111   18.404806   28.110278 H          1 MOL1         0.0978
      26    H18     20.054169   19.896153   27.632739 H          1 MOL1         0.0978
@<TRIPOS>BOND
    1     1     2    1
    2     1     3    1
    3     1     4    1
    4     4     5    1
    5     4     6    1
    6     4     7    1
    7     7     8    1
    8     7     9    1
    9     7    10    1
   10    10    11    1
   11    10    12    1
   12    10    13    1
   13    13    14    1
   14    13    15    1
   15    13    16    1
   16    16    17    1
   17    16    18    1
   18    16    19    1
   19    19    20    1
   20    19    21    1
   21    19    22    1
   22     1    23    1
   23    23    24    1
   24    23    25    1
   25    23    26    1
@<TRIPOS>SUBSTRUCTURE
       1 MOL1            1 RESIDUE      1      MOL     
@<SCITEGIC>MOL_PROPERTY
VM2 Rank
SciTegic.value.IntegerValue
47

@<SCITEGIC>MOL_PROPERTY
Conf_Id
SciTegic.value.IntegerValue
1050

@<SCITEGIC>MOL_PROPERTY
Probability
SciTegic.value.DoubleValue
0.76

@<SCITEGIC>MOL_PROPERTY
Sum Probability
SciTegic.value.DoubleValue
78.63

@<SCITEGIC>MOL_PROPERTY
Delta G
SciTegic.value.DoubleValue
1.310

@<SCITEGIC>MOL_PROPERTY
G
SciTegic.value.DoubleValue
76.776

@<SCITEGIC>MOL_PROPERTY
E
SciTegic.value.DoubleValue
44.188

@<SCITEGIC>MOL_PROPERTY
-TS
SciTegic.value.DoubleValue
32.588

@<SCITEGIC>MOL_PROPERTY
U+W
SciTegic.value.DoubleValue
22.726

@<SCITEGIC>MOL_PROPERTY
U
SciTegic.value.DoubleValue
71.870

@<SCITEGIC>MOL_PROPERTY
W
SciTegic.value.DoubleValue
-49.144

@<SCITEGIC>MOL_PROPERTY
W(PB)
SciTegic.value.DoubleValue
-51.404

@<SCITEGIC>MOL_PROPERTY
W(SA)
SciTegic.value.DoubleValue
2.260

@<SCITEGIC>MOL_PROPERTY
Valence
SciTegic.value.DoubleValue
2.682

@<SCITEGIC>MOL_PROPERTY
Coulomb
SciTegic.value.DoubleValue
68.933

@<SCITEGIC>MOL_PROPERTY
VdW
SciTegic.value.DoubleValue
0.255

@<SCITEGIC>MOL_PROPERTY
VdW6
SciTegic.value.DoubleValue
-6.833

@<SCITEGIC>MOL_PROPERTY
VdW12
SciTegic.value.DoubleValue
7.088

@<SCITEGIC>MOL_PROPERTY
Bond
SciTegic.value.DoubleValue
0.205

@<SCITEGIC>MOL_PROPERTY
Angle
SciTegic.value.DoubleValue
1.003

@<SCITEGIC>MOL_PROPERTY
Pdih
SciTegic.value.DoubleValue
1.473

@<SCITEGIC>MOL_PROPERTY
Idih
SciTegic.value.DoubleValue
0.000

@<SCITEGIC>MOL_PROPERTY
Tether
SciTegic.value.DoubleValue
0.000

@<TRIPOS>MOLECULE
guest-s12_vm2.mol2 : vm2 ligand conformer 48
          26          25           1
SMALL
USER_CHARGES
 
@<TRIPOS>ATOM
       1    N1      19.673442   18.475543   26.251147 N.4        1 MOL1        -0.4857
       2    H1      20.516059   18.009862   26.622062 H          1 MOL1         0.3650
       3    H2      18.882468   17.907517   26.594092 H          1 MOL1         0.3650
       4    C1      19.690167   18.459879   24.731912 C.3        1 MOL1         0.0209
       5    H3      18.804990   18.996526   24.382354 H          1 MOL1         0.0967
       6    H4      19.601919   17.417170   24.416374 H          1 MOL1         0.0967
       7    C2      20.959782   19.068849   24.099632 C.3        1 MOL1        -0.1378
       8    H5      21.045674   20.127801   24.375379 H          1 MOL1         0.0993
       9    H6      21.843330   18.564143   24.512155 H          1 MOL1         0.0993
      10    C3      20.977900   18.935271   22.558689 C.3        1 MOL1        -0.1338
      11    H7      20.931912   17.871552   22.289971 H          1 MOL1         0.0993
      12    H8      21.939628   19.310949   22.183008 H          1 MOL1         0.0993
      13    C4      19.824034   19.708702   21.871415 C.3        1 MOL1        -0.1338
      14    H9      18.855628   19.280543   22.163049 H          1 MOL1         0.0993
      15    H10     19.824218   20.747248   22.230264 H          1 MOL1         0.0993
      16    C5      19.928741   19.722742   20.327115 C.3        1 MOL1        -0.1313
      17    H11     20.882121   20.176997   20.022924 H          1 MOL1         0.0993
      18    H12     19.137811   20.371692   19.925652 H          1 MOL1         0.0993
      19    C6      19.794296   18.320730   19.690204 C.3        1 MOL1        -0.2328
      20    H13     20.631421   17.668988   19.969337 H          1 MOL1         0.1004
      21    H14     19.785878   18.395482   18.595095 H          1 MOL1         0.1004
      22    H15     18.860599   17.833809   20.000209 H          1 MOL1         0.1004
      23    C7      19.559638   19.898285   26.786887 C.3        1 MOL1        -0.0781
      24    H16     18.650635   20.358243   26.393212 H          1 MOL1         0.0978
      25    H17     19.514070   19.866526   27.877756 H          1 MOL1         0.0978
      26    H18     20.432548   20.474043   26.472907 H          1 MOL1         0.0978
@<TRIPOS>BOND
    1     1     2    1
    2     1     3    1
    3     1     4    1
    4     4     5    1
    5     4     6    1
    6     4     7    1
    7     7     8    1
    8     7     9    1
    9     7    10    1
   10    10    11    1
   11    10    12    1
   12    10    13    1
   13    13    14    1
   14    13    15    1
   15    13    16    1
   16    16    17    1
   17    16    18    1
   18    16    19    1
   19    19    20    1
   20    19    21    1
   21    19    22    1
   22     1    23    1
   23    23    24    1
   24    23    25    1
   25    23    26    1
@<TRIPOS>SUBSTRUCTURE
       1 MOL1            1 RESIDUE      1      MOL     
@<SCITEGIC>MOL_PROPERTY
VM2 Rank
SciTegic.value.IntegerValue
48

@<SCITEGIC>MOL_PROPERTY
Conf_Id
SciTegic.value.IntegerValue
175

@<SCITEGIC>MOL_PROPERTY
Probability
SciTegic.value.DoubleValue
0.75

@<SCITEGIC>MOL_PROPERTY
Sum Probability
SciTegic.value.DoubleValue
79.39

@<SCITEGIC>MOL_PROPERTY
Delta G
SciTegic.value.DoubleValue
1.315

@<SCITEGIC>MOL_PROPERTY
G
SciTegic.value.DoubleValue
76.781

@<SCITEGIC>MOL_PROPERTY
E
SciTegic.value.DoubleValue
44.237

@<SCITEGIC>MOL_PROPERTY
-TS
SciTegic.value.DoubleValue
32.544

@<SCITEGIC>MOL_PROPERTY
U+W
SciTegic.value.DoubleValue
22.775

@<SCITEGIC>MOL_PROPERTY
U
SciTegic.value.DoubleValue
72.114

@<SCITEGIC>MOL_PROPERTY
W
SciTegic.value.DoubleValue
-49.339

@<SCITEGIC>MOL_PROPERTY
W(PB)
SciTegic.value.DoubleValue
-51.571

@<SCITEGIC>MOL_PROPERTY
W(SA)
SciTegic.value.DoubleValue
2.232

@<SCITEGIC>MOL_PROPERTY
Valence
SciTegic.value.DoubleValue
2.783

@<SCITEGIC>MOL_PROPERTY
Coulomb
SciTegic.value.DoubleValue
68.782

@<SCITEGIC>MOL_PROPERTY
VdW
SciTegic.value.DoubleValue
0.550

@<SCITEGIC>MOL_PROPERTY
VdW6
SciTegic.value.DoubleValue
-7.241

@<SCITEGIC>MOL_PROPERTY
VdW12
SciTegic.value.DoubleValue
7.791

@<SCITEGIC>MOL_PROPERTY
Bond
SciTegic.value.DoubleValue
0.221

@<SCITEGIC>MOL_PROPERTY
Angle
SciTegic.value.DoubleValue
0.803

@<SCITEGIC>MOL_PROPERTY
Pdih
SciTegic.value.DoubleValue
1.759

@<SCITEGIC>MOL_PROPERTY
Idih
SciTegic.value.DoubleValue
0.000

@<SCITEGIC>MOL_PROPERTY
Tether
SciTegic.value.DoubleValue
0.000

@<TRIPOS>MOLECULE
guest-s12_vm2.mol2 : vm2 ligand conformer 49
          26          25           1
SMALL
USER_CHARGES
 
@<TRIPOS>ATOM
       1    N1      20.242893   18.522956   26.064309 N.4        1 MOL1        -0.4857
       2    H1      21.066917   17.949328   25.826214 H          1 MOL1         0.3650
       3    H2      19.463069   17.854792   26.165599 H          1 MOL1         0.3650
       4    C1      19.948523   19.504624   24.947839 C.3        1 MOL1         0.0209
       5    H3      20.798649   20.186862   24.868361 H          1 MOL1         0.0967
       6    H4      19.067492   20.084208   25.234795 H          1 MOL1         0.0967
       7    C2      19.701337   18.825004   23.588883 C.3        1 MOL1        -0.1378
       8    H5      20.584525   18.231806   23.320103 H          1 MOL1         0.0993
       9    H6      18.856738   18.128798   23.676820 H          1 MOL1         0.0993
      10    C3      19.404940   19.866293   22.484193 C.3        1 MOL1        -0.1338
      11    H7      20.264751   20.539540   22.367902 H          1 MOL1         0.0993
      12    H8      18.567620   20.500388   22.807323 H          1 MOL1         0.0993
      13    C4      19.038599   19.233665   21.116465 C.3        1 MOL1        -0.1338
      14    H9      18.111475   18.654562   21.227500 H          1 MOL1         0.0993
      15    H10     18.805427   20.039514   20.406898 H          1 MOL1         0.0993
      16    C5      20.126537   18.319932   20.496131 C.3        1 MOL1        -0.1313
      17    H11     19.753249   17.933869   19.537282 H          1 MOL1         0.0993
      18    H12     20.289454   17.438357   21.130457 H          1 MOL1         0.0993
      19    C6      21.470774   19.042558   20.251523 C.3        1 MOL1        -0.2328
      20    H13     21.330199   19.939300   19.634244 H          1 MOL1         0.1004
      21    H14     22.173138   18.381279   19.727835 H          1 MOL1         0.1004
      22    H15     21.942840   19.344494   21.194700 H          1 MOL1         0.1004
      23    C7      20.474397   19.274967   27.367657 C.3        1 MOL1        -0.0781
      24    H16     20.685140   18.556652   28.163115 H          1 MOL1         0.0978
      25    H17     21.323834   19.950770   27.246389 H          1 MOL1         0.0978
      26    H18     19.578151   19.847760   27.615874 H          1 MOL1         0.0978
@<TRIPOS>BOND
    1     1     2    1
    2     1     3    1
    3     1     4    1
    4     4     5    1
    5     4     6    1
    6     4     7    1
    7     7     8    1
    8     7     9    1
    9     7    10    1
   10    10    11    1
   11    10    12    1
   12    10    13    1
   13    13    14    1
   14    13    15    1
   15    13    16    1
   16    16    17    1
   17    16    18    1
   18    16    19    1
   19    19    20    1
   20    19    21    1
   21    19    22    1
   22     1    23    1
   23    23    24    1
   24    23    25    1
   25    23    26    1
@<TRIPOS>SUBSTRUCTURE
       1 MOL1            1 RESIDUE      1      MOL     
@<SCITEGIC>MOL_PROPERTY
VM2 Rank
SciTegic.value.IntegerValue
49

@<SCITEGIC>MOL_PROPERTY
Conf_Id
SciTegic.value.IntegerValue
1839

@<SCITEGIC>MOL_PROPERTY
Probability
SciTegic.value.DoubleValue
0.73

@<SCITEGIC>MOL_PROPERTY
Sum Probability
SciTegic.value.DoubleValue
80.11

@<SCITEGIC>MOL_PROPERTY
Delta G
SciTegic.value.DoubleValue
1.336

@<SCITEGIC>MOL_PROPERTY
G
SciTegic.value.DoubleValue
76.802

@<SCITEGIC>MOL_PROPERTY
E
SciTegic.value.DoubleValue
44.214

@<SCITEGIC>MOL_PROPERTY
-TS
SciTegic.value.DoubleValue
32.588

@<SCITEGIC>MOL_PROPERTY
U+W
SciTegic.value.DoubleValue
22.752

@<SCITEGIC>MOL_PROPERTY
U
SciTegic.value.DoubleValue
71.870

@<SCITEGIC>MOL_PROPERTY
W
SciTegic.value.DoubleValue
-49.118

@<SCITEGIC>MOL_PROPERTY
W(PB)
SciTegic.value.DoubleValue
-51.409

@<SCITEGIC>MOL_PROPERTY
W(SA)
SciTegic.value.DoubleValue
2.290

@<SCITEGIC>MOL_PROPERTY
Valence
SciTegic.value.DoubleValue
2.682

@<SCITEGIC>MOL_PROPERTY
Coulomb
SciTegic.value.DoubleValue
68.933

@<SCITEGIC>MOL_PROPERTY
VdW
SciTegic.value.DoubleValue
0.255

@<SCITEGIC>MOL_PROPERTY
VdW6
SciTegic.value.DoubleValue
-6.833

@<SCITEGIC>MOL_PROPERTY
VdW12
SciTegic.value.DoubleValue
7.088

@<SCITEGIC>MOL_PROPERTY
Bond
SciTegic.value.DoubleValue
0.205

@<SCITEGIC>MOL_PROPERTY
Angle
SciTegic.value.DoubleValue
1.003

@<SCITEGIC>MOL_PROPERTY
Pdih
SciTegic.value.DoubleValue
1.473

@<SCITEGIC>MOL_PROPERTY
Idih
SciTegic.value.DoubleValue
0.000

@<SCITEGIC>MOL_PROPERTY
Tether
SciTegic.value.DoubleValue
0.000

@<TRIPOS>MOLECULE
guest-s12_vm2.mol2 : vm2 ligand conformer 50
          26          25           1
SMALL
USER_CHARGES
 
@<TRIPOS>ATOM
       1    N1      19.426053   19.086597   26.142408 N.4        1 MOL1        -0.4857
       2    H1      18.768199   18.412363   25.723733 H          1 MOL1         0.3650
       3    H2      18.920282   19.489529   26.947213 H          1 MOL1         0.3650
       4    C1      19.753526   20.187050   25.144882 C.3        1 MOL1         0.0209
       5    H3      20.457093   20.870149   25.627447 H          1 MOL1         0.0967
       6    H4      18.829641   20.738244   24.951904 H          1 MOL1         0.0967
       7    C2      20.341821   19.707807   23.799439 C.3        1 MOL1        -0.1378
       8    H5      20.575523   20.596615   23.200752 H          1 MOL1         0.0993
       9    H6      21.294730   19.191491   23.972626 H          1 MOL1         0.0993
      10    C3      19.373390   18.786091   23.016072 C.3        1 MOL1        -0.1338
      11    H7      18.430730   19.316827   22.823340 H          1 MOL1         0.0993
      12    H8      19.117738   17.917002   23.636515 H          1 MOL1         0.0993
      13    C4      19.958621   18.266145   21.679647 C.3        1 MOL1        -0.1338
      14    H9      20.898277   17.730268   21.872543 H          1 MOL1         0.0993
      15    H10     19.263083   17.525682   21.260860 H          1 MOL1         0.0993
      16    C5      20.197491   19.378168   20.630498 C.3        1 MOL1        -0.1313
      17    H11     20.952970   20.087460   20.993353 H          1 MOL1         0.0993
      18    H12     19.271219   19.949448   20.477415 H          1 MOL1         0.0993
      19    C6      20.667463   18.795444   19.280454 C.3        1 MOL1        -0.2328
      20    H13     21.608854   18.242515   19.395581 H          1 MOL1         0.1004
      21    H14     20.835032   19.597063   18.549464 H          1 MOL1         0.1004
      22    H15     19.917784   18.110817   18.862779 H          1 MOL1         0.1004
      23    C7      20.689636   18.382697   26.623600 C.3        1 MOL1        -0.0781
      24    H16     21.358920   19.117182   27.076787 H          1 MOL1         0.0978
      25    H17     20.417663   17.625984   27.362826 H          1 MOL1         0.0978
      26    H18     21.182798   17.905577   25.774302 H          1 MOL1         0.0978
@<TRIPOS>BOND
    1     1     2    1
    2     1     3    1
    3     1     4    1
    4     4     5    1
    5     4     6    1
    6     4     7    1
    7     7     8    1
    8     7     9    1
    9     7    10    1
   10    10    11    1
   11    10    12    1
   12    10    13    1
   13    13    14    1
   14    13    15    1
   15    13    16    1
   16    16    17    1
   17    16    18    1
   18    16    19    1
   19    19    20    1
   20    19    21    1
   21    19    22    1
   22     1    23    1
   23    23    24    1
   24    23    25    1
   25    23    26    1
@<TRIPOS>SUBSTRUCTURE
       1 MOL1            1 RESIDUE      1      MOL     
@<SCITEGIC>MOL_PROPERTY
VM2 Rank
SciTegic.value.IntegerValue
50

@<SCITEGIC>MOL_PROPERTY
Conf_Id
SciTegic.value.IntegerValue
548

@<SCITEGIC>MOL_PROPERTY
Probability
SciTegic.value.DoubleValue
0.72

@<SCITEGIC>MOL_PROPERTY
Sum Probability
SciTegic.value.DoubleValue
80.84

@<SCITEGIC>MOL_PROPERTY
Delta G
SciTegic.value.DoubleValue
1.337

@<SCITEGIC>MOL_PROPERTY
G
SciTegic.value.DoubleValue
76.803

@<SCITEGIC>MOL_PROPERTY
E
SciTegic.value.DoubleValue
44.255

@<SCITEGIC>MOL_PROPERTY
-TS
SciTegic.value.DoubleValue
32.549

@<SCITEGIC>MOL_PROPERTY
U+W
SciTegic.value.DoubleValue
22.793

@<SCITEGIC>MOL_PROPERTY
U
SciTegic.value.DoubleValue
72.239

@<SCITEGIC>MOL_PROPERTY
W
SciTegic.value.DoubleValue
-49.446

@<SCITEGIC>MOL_PROPERTY
W(PB)
SciTegic.value.DoubleValue
-51.687

@<SCITEGIC>MOL_PROPERTY
W(SA)
SciTegic.value.DoubleValue
2.241

@<SCITEGIC>MOL_PROPERTY
Valence
SciTegic.value.DoubleValue
2.659

@<SCITEGIC>MOL_PROPERTY
Coulomb
SciTegic.value.DoubleValue
69.025

@<SCITEGIC>MOL_PROPERTY
VdW
SciTegic.value.DoubleValue
0.555

@<SCITEGIC>MOL_PROPERTY
VdW6
SciTegic.value.DoubleValue
-7.358

@<SCITEGIC>MOL_PROPERTY
VdW12
SciTegic.value.DoubleValue
7.913

@<SCITEGIC>MOL_PROPERTY
Bond
SciTegic.value.DoubleValue
0.229

@<SCITEGIC>MOL_PROPERTY
Angle
SciTegic.value.DoubleValue
0.883

@<SCITEGIC>MOL_PROPERTY
Pdih
SciTegic.value.DoubleValue
1.546

@<SCITEGIC>MOL_PROPERTY
Idih
SciTegic.value.DoubleValue
0.000

@<SCITEGIC>MOL_PROPERTY
Tether
SciTegic.value.DoubleValue
0.000

@<TRIPOS>MOLECULE
guest-s12_vm2.mol2 : vm2 ligand conformer 51
          26          25           1
SMALL
USER_CHARGES
 
@<TRIPOS>ATOM
       1    N1      19.602160   18.818977   26.050775 N.4        1 MOL1        -0.4857
       2    H1      20.400366   18.973324   26.685923 H          1 MOL1         0.3650
       3    H2      19.045193   18.074207   26.499027 H          1 MOL1         0.3650
       4    C1      20.093813   18.340548   24.695245 C.3        1 MOL1         0.0209
       5    H3      19.223826   18.236008   24.042496 H          1 MOL1         0.0967
       6    H4      20.532460   17.349754   24.838335 H          1 MOL1         0.0967
       7    C2      21.140507   19.261023   24.032577 C.3        1 MOL1        -0.1378
       8    H5      20.714749   20.258374   23.867955 H          1 MOL1         0.0993
       9    H6      21.984424   19.397961   24.721433 H          1 MOL1         0.0993
      10    C3      21.674167   18.691389   22.694523 C.3        1 MOL1        -0.1338
      11    H7      22.223864   17.761823   22.897512 H          1 MOL1         0.0993
      12    H8      22.410458   19.392060   22.277131 H          1 MOL1         0.0993
      13    C4      20.585594   18.402672   21.628153 C.3        1 MOL1        -0.1338
      14    H9      21.076389   17.989393   20.736134 H          1 MOL1         0.0993
      15    H10     19.905421   17.619082   21.988141 H          1 MOL1         0.0993
      16    C5      19.770437   19.652692   21.219841 C.3        1 MOL1        -0.1313
      17    H11     20.452859   20.452607   20.900182 H          1 MOL1         0.0993
      18    H12     19.209579   20.037645   22.082020 H          1 MOL1         0.0993
      19    C6      18.779412   19.338685   20.078809 C.3        1 MOL1        -0.2328
      20    H13     18.063870   18.562483   20.379962 H          1 MOL1         0.1004
      21    H14     19.306987   18.988005   19.182224 H          1 MOL1         0.1004
      22    H15     18.208160   20.234844   19.803910 H          1 MOL1         0.1004
      23    C7      18.761909   20.084014   25.917076 C.3        1 MOL1        -0.0781
      24    H16     17.916594   19.884862   25.254800 H          1 MOL1         0.0978
      25    H17     18.396151   20.375623   26.904126 H          1 MOL1         0.0978
      26    H18     19.377147   20.885103   25.502678 H          1 MOL1         0.0978
@<TRIPOS>BOND
    1     1     2    1
    2     1     3    1
    3     1     4    1
    4     4     5    1
    5     4     6    1
    6     4     7    1
    7     7     8    1
    8     7     9    1
    9     7    10    1
   10    10    11    1
   11    10    12    1
   12    10    13    1
   13    13    14    1
   14    13    15    1
   15    13    16    1
   16    16    17    1
   17    16    18    1
   18    16    19    1
   19    19    20    1
   20    19    21    1
   21    19    22    1
   22     1    23    1
   23    23    24    1
   24    23    25    1
   25    23    26    1
@<TRIPOS>SUBSTRUCTURE
       1 MOL1            1 RESIDUE      1      MOL     
@<SCITEGIC>MOL_PROPERTY
VM2 Rank
SciTegic.value.IntegerValue
51

@<SCITEGIC>MOL_PROPERTY
Conf_Id
SciTegic.value.IntegerValue
460

@<SCITEGIC>MOL_PROPERTY
Probability
SciTegic.value.DoubleValue
0.71

@<SCITEGIC>MOL_PROPERTY
Sum Probability
SciTegic.value.DoubleValue
81.55

@<SCITEGIC>MOL_PROPERTY
Delta G
SciTegic.value.DoubleValue
1.347

@<SCITEGIC>MOL_PROPERTY
G
SciTegic.value.DoubleValue
76.813

@<SCITEGIC>MOL_PROPERTY
E
SciTegic.value.DoubleValue
44.143

@<SCITEGIC>MOL_PROPERTY
-TS
SciTegic.value.DoubleValue
32.670

@<SCITEGIC>MOL_PROPERTY
U+W
SciTegic.value.DoubleValue
22.681

@<SCITEGIC>MOL_PROPERTY
U
SciTegic.value.DoubleValue
72.352

@<SCITEGIC>MOL_PROPERTY
W
SciTegic.value.DoubleValue
-49.671

@<SCITEGIC>MOL_PROPERTY
W(PB)
SciTegic.value.DoubleValue
-51.906

@<SCITEGIC>MOL_PROPERTY
W(SA)
SciTegic.value.DoubleValue
2.236

@<SCITEGIC>MOL_PROPERTY
Valence
SciTegic.value.DoubleValue
2.742

@<SCITEGIC>MOL_PROPERTY
Coulomb
SciTegic.value.DoubleValue
69.270

@<SCITEGIC>MOL_PROPERTY
VdW
SciTegic.value.DoubleValue
0.339

@<SCITEGIC>MOL_PROPERTY
VdW6
SciTegic.value.DoubleValue
-7.703

@<SCITEGIC>MOL_PROPERTY
VdW12
SciTegic.value.DoubleValue
8.042

@<SCITEGIC>MOL_PROPERTY
Bond
SciTegic.value.DoubleValue
0.229

@<SCITEGIC>MOL_PROPERTY
Angle
SciTegic.value.DoubleValue
0.954

@<SCITEGIC>MOL_PROPERTY
Pdih
SciTegic.value.DoubleValue
1.560

@<SCITEGIC>MOL_PROPERTY
Idih
SciTegic.value.DoubleValue
0.000

@<SCITEGIC>MOL_PROPERTY
Tether
SciTegic.value.DoubleValue
0.000

@<TRIPOS>MOLECULE
guest-s12_vm2.mol2 : vm2 ligand conformer 52
          26          25           1
SMALL
USER_CHARGES
 
@<TRIPOS>ATOM
       1    N1      20.459321   19.189142   26.179089 N.4        1 MOL1        -0.4857
       2    H1      20.818393   19.677953   27.014553 H          1 MOL1         0.3650
       3    H2      21.264487   18.660159   25.812297 H          1 MOL1         0.3650
       4    C1      19.992888   20.210754   25.153399 C.3        1 MOL1         0.0209
       5    H3      20.801673   20.934090   25.021992 H          1 MOL1         0.0967
       6    H4      19.136674   20.738872   25.580583 H          1 MOL1         0.0967
       7    C2      19.606268   19.634687   23.773304 C.3        1 MOL1        -0.1378
       8    H5      18.763764   18.939827   23.882705 H          1 MOL1         0.0993
       9    H6      19.244938   20.464380   23.153564 H          1 MOL1         0.0993
      10    C3      20.789641   18.927024   23.066246 C.3        1 MOL1        -0.1338
      11    H7      21.167154   18.120932   23.709147 H          1 MOL1         0.0993
      12    H8      21.620584   19.634208   22.936402 H          1 MOL1         0.0993
      13    C4      20.413390   18.311409   21.695726 C.3        1 MOL1        -0.1338
      14    H9      21.268752   17.725413   21.331850 H          1 MOL1         0.0993
      15    H10     19.586537   17.599603   21.826009 H          1 MOL1         0.0993
      16    C5      20.034260   19.361936   20.624736 C.3        1 MOL1        -0.1313
      17    H11     20.838196   20.105615   20.533069 H          1 MOL1         0.0993
      18    H12     19.130261   19.905858   20.928784 H          1 MOL1         0.0993
      19    C6      19.784229   18.707566   19.249110 C.3        1 MOL1        -0.2328
      20    H13     18.964575   17.979142   19.301727 H          1 MOL1         0.1004
      21    H14     20.681554   18.187088   18.889807 H          1 MOL1         0.1004
      22    H15     19.513649   19.465576   18.502633 H          1 MOL1         0.1004
      23    C7      19.328003   18.247482   26.575389 C.3        1 MOL1        -0.0781
      24    H16     18.497458   18.833065   26.975479 H          1 MOL1         0.0978
      25    H17     18.998868   17.688781   25.696934 H          1 MOL1         0.0978
      26    H18     19.690786   17.553739   27.337066 H          1 MOL1         0.0978
@<TRIPOS>BOND
    1     1     2    1
    2     1     3    1
    3     1     4    1
    4     4     5    1
    5     4     6    1
    6     4     7    1
    7     7     8    1
    8     7     9    1
    9     7    10    1
   10    10    11    1
   11    10    12    1
   12    10    13    1
   13    13    14    1
   14    13    15    1
   15    13    16    1
   16    16    17    1
   17    16    18    1
   18    16    19    1
   19    19    20    1
   20    19    21    1
   21    19    22    1
   22     1    23    1
   23    23    24    1
   24    23    25    1
   25    23    26    1
@<TRIPOS>SUBSTRUCTURE
       1 MOL1            1 RESIDUE      1      MOL     
@<SCITEGIC>MOL_PROPERTY
VM2 Rank
SciTegic.value.IntegerValue
52

@<SCITEGIC>MOL_PROPERTY
Conf_Id
SciTegic.value.IntegerValue
1591

@<SCITEGIC>MOL_PROPERTY
Probability
SciTegic.value.DoubleValue
0.71

@<SCITEGIC>MOL_PROPERTY
Sum Probability
SciTegic.value.DoubleValue
82.26

@<SCITEGIC>MOL_PROPERTY
Delta G
SciTegic.value.DoubleValue
1.350

@<SCITEGIC>MOL_PROPERTY
G
SciTegic.value.DoubleValue
76.816

@<SCITEGIC>MOL_PROPERTY
E
SciTegic.value.DoubleValue
44.267

@<SCITEGIC>MOL_PROPERTY
-TS
SciTegic.value.DoubleValue
32.549

@<SCITEGIC>MOL_PROPERTY
U+W
SciTegic.value.DoubleValue
22.806

@<SCITEGIC>MOL_PROPERTY
U
SciTegic.value.DoubleValue
72.239

@<SCITEGIC>MOL_PROPERTY
W
SciTegic.value.DoubleValue
-49.432

@<SCITEGIC>MOL_PROPERTY
W(PB)
SciTegic.value.DoubleValue
-51.686

@<SCITEGIC>MOL_PROPERTY
W(SA)
SciTegic.value.DoubleValue
2.253

@<SCITEGIC>MOL_PROPERTY
Valence
SciTegic.value.DoubleValue
2.659

@<SCITEGIC>MOL_PROPERTY
Coulomb
SciTegic.value.DoubleValue
69.025

@<SCITEGIC>MOL_PROPERTY
VdW
SciTegic.value.DoubleValue
0.555

@<SCITEGIC>MOL_PROPERTY
VdW6
SciTegic.value.DoubleValue
-7.357

@<SCITEGIC>MOL_PROPERTY
VdW12
SciTegic.value.DoubleValue
7.913

@<SCITEGIC>MOL_PROPERTY
Bond
SciTegic.value.DoubleValue
0.229

@<SCITEGIC>MOL_PROPERTY
Angle
SciTegic.value.DoubleValue
0.883

@<SCITEGIC>MOL_PROPERTY
Pdih
SciTegic.value.DoubleValue
1.546

@<SCITEGIC>MOL_PROPERTY
Idih
SciTegic.value.DoubleValue
0.000

@<SCITEGIC>MOL_PROPERTY
Tether
SciTegic.value.DoubleValue
0.000

@<TRIPOS>MOLECULE
guest-s12_vm2.mol2 : vm2 ligand conformer 53
          26          25           1
SMALL
USER_CHARGES
 
@<TRIPOS>ATOM
       1    N1      20.333454   18.543197   26.274555 N.4        1 MOL1        -0.4857
       2    H1      21.196948   18.144449   26.676153 H          1 MOL1         0.3650
       3    H2      19.578540   17.914164   26.588976 H          1 MOL1         0.3650
       4    C1      20.426652   18.535146   24.758030 C.3        1 MOL1         0.0209
       5    H3      20.745912   17.534101   24.457069 H          1 MOL1         0.0967
       6    H4      21.207198   19.242236   24.467362 H          1 MOL1         0.0967
       7    C2      19.107523   18.879029   24.034024 C.3        1 MOL1        -0.1378
       8    H5      18.317757   18.202981   24.387275 H          1 MOL1         0.0993
       9    H6      18.789946   19.896671   24.295454 H          1 MOL1         0.0993
      10    C3      19.224811   18.755559   22.496599 C.3        1 MOL1        -0.1338
      11    H7      18.235607   18.931113   22.051799 H          1 MOL1         0.0993
      12    H8      19.504218   17.725205   22.239448 H          1 MOL1         0.0993
      13    C4      20.243122   19.751783   21.886248 C.3        1 MOL1        -0.1338
      14    H9      20.007157   20.766136   22.236621 H          1 MOL1         0.0993
      15    H10     21.255363   19.526880   22.248144 H          1 MOL1         0.0993
      16    C5      20.246247   19.755253   20.338345 C.3        1 MOL1        -0.1313
      17    H11     20.915167   20.554055   19.988573 H          1 MOL1         0.0993
      18    H12     19.244233   20.008710   19.964791 H          1 MOL1         0.0993
      19    C6      20.706740   18.414269   19.722656 C.3        1 MOL1        -0.2328
      20    H13     21.695774   18.124819   20.100834 H          1 MOL1         0.1004
      21    H14     20.776509   18.496940   18.630310 H          1 MOL1         0.1004
      22    H15     20.001871   17.604212   19.947224 H          1 MOL1         0.1004
      23    C7      20.119450   19.955766   26.806543 C.3        1 MOL1        -0.0781
      24    H16     20.093955   19.926212   27.898129 H          1 MOL1         0.0978
      25    H17     20.941997   20.592759   26.474149 H          1 MOL1         0.0978
      26    H18     19.172354   20.345341   26.428004 H          1 MOL1         0.0978
@<TRIPOS>BOND
    1     1     2    1
    2     1     3    1
    3     1     4    1
    4     4     5    1
    5     4     6    1
    6     4     7    1
    7     7     8    1
    8     7     9    1
    9     7    10    1
   10    10    11    1
   11    10    12    1
   12    10    13    1
   13    13    14    1
   14    13    15    1
   15    13    16    1
   16    16    17    1
   17    16    18    1
   18    16    19    1
   19    19    20    1
   20    19    21    1
   21    19    22    1
   22     1    23    1
   23    23    24    1
   24    23    25    1
   25    23    26    1
@<TRIPOS>SUBSTRUCTURE
       1 MOL1            1 RESIDUE      1      MOL     
@<SCITEGIC>MOL_PROPERTY
VM2 Rank
SciTegic.value.IntegerValue
53

@<SCITEGIC>MOL_PROPERTY
Conf_Id
SciTegic.value.IntegerValue
1022

@<SCITEGIC>MOL_PROPERTY
Probability
SciTegic.value.DoubleValue
0.69

@<SCITEGIC>MOL_PROPERTY
Sum Probability
SciTegic.value.DoubleValue
82.95

@<SCITEGIC>MOL_PROPERTY
Delta G
SciTegic.value.DoubleValue
1.363

@<SCITEGIC>MOL_PROPERTY
G
SciTegic.value.DoubleValue
76.829

@<SCITEGIC>MOL_PROPERTY
E
SciTegic.value.DoubleValue
44.285

@<SCITEGIC>MOL_PROPERTY
-TS
SciTegic.value.DoubleValue
32.544

@<SCITEGIC>MOL_PROPERTY
U+W
SciTegic.value.DoubleValue
22.823

@<SCITEGIC>MOL_PROPERTY
U
SciTegic.value.DoubleValue
72.114

@<SCITEGIC>MOL_PROPERTY
W
SciTegic.value.DoubleValue
-49.291

@<SCITEGIC>MOL_PROPERTY
W(PB)
SciTegic.value.DoubleValue
-51.567

@<SCITEGIC>MOL_PROPERTY
W(SA)
SciTegic.value.DoubleValue
2.276

@<SCITEGIC>MOL_PROPERTY
Valence
SciTegic.value.DoubleValue
2.783

@<SCITEGIC>MOL_PROPERTY
Coulomb
SciTegic.value.DoubleValue
68.782

@<SCITEGIC>MOL_PROPERTY
VdW
SciTegic.value.DoubleValue
0.549

@<SCITEGIC>MOL_PROPERTY
VdW6
SciTegic.value.DoubleValue
-7.241

@<SCITEGIC>MOL_PROPERTY
VdW12
SciTegic.value.DoubleValue
7.790

@<SCITEGIC>MOL_PROPERTY
Bond
SciTegic.value.DoubleValue
0.221

@<SCITEGIC>MOL_PROPERTY
Angle
SciTegic.value.DoubleValue
0.803

@<SCITEGIC>MOL_PROPERTY
Pdih
SciTegic.value.DoubleValue
1.759

@<SCITEGIC>MOL_PROPERTY
Idih
SciTegic.value.DoubleValue
0.000

@<SCITEGIC>MOL_PROPERTY
Tether
SciTegic.value.DoubleValue
0.000

@<TRIPOS>MOLECULE
guest-s12_vm2.mol2 : vm2 ligand conformer 54
          26          25           1
SMALL
USER_CHARGES
 
@<TRIPOS>ATOM
       1    N1      20.892212   18.879003   25.492173 N.4        1 MOL1        -0.4857
       2    H1      21.379430   19.371389   24.728694 H          1 MOL1         0.3650
       3    H2      21.584189   18.211644   25.868413 H          1 MOL1         0.3650
       4    C1      19.697111   18.118092   24.940228 C.3        1 MOL1         0.0209
       5    H3      19.198742   17.628230   25.780540 H          1 MOL1         0.0967
       6    H4      20.083434   17.337875   24.279940 H          1 MOL1         0.0967
       7    C2      18.674677   18.977210   24.162074 C.3        1 MOL1        -0.1378
       8    H5      17.863991   18.324734   23.811843 H          1 MOL1         0.0993
       9    H6      18.207556   19.697246   24.846321 H          1 MOL1         0.0993
      10    C3      19.277371   19.736224   22.953281 C.3        1 MOL1        -0.1338
      11    H7      20.027622   20.458007   23.303102 H          1 MOL1         0.0993
      12    H8      18.481668   20.329204   22.481489 H          1 MOL1         0.0993
      13    C4      19.905196   18.797292   21.895053 C.3        1 MOL1        -0.1338
      14    H9      20.731179   18.226724   22.339986 H          1 MOL1         0.0993
      15    H10     19.155694   18.065258   21.563722 H          1 MOL1         0.0993
      16    C5      20.432831   19.581451   20.672910 C.3        1 MOL1        -0.1313
      17    H11     21.181631   20.317062   20.998654 H          1 MOL1         0.0993
      18    H12     19.611525   20.148415   20.212488 H          1 MOL1         0.0993
      19    C6      21.060830   18.644225   19.619308 C.3        1 MOL1        -0.2328
      20    H13     21.908730   18.088339   20.040306 H          1 MOL1         0.1004
      21    H14     21.428773   19.218904   18.759437 H          1 MOL1         0.1004
      22    H15     20.325851   17.917694   19.248959 H          1 MOL1         0.1004
      23    C7      20.467771   19.856504   26.581973 C.3        1 MOL1        -0.0781
      24    H16     19.782822   20.593865   26.158513 H          1 MOL1         0.0978
      25    H17     19.970854   19.306000   27.383709 H          1 MOL1         0.0978
      26    H18     21.353537   20.360694   26.974698 H          1 MOL1         0.0978
@<TRIPOS>BOND
    1     1     2    1
    2     1     3    1
    3     1     4    1
    4     4     5    1
    5     4     6    1
    6     4     7    1
    7     7     8    1
    8     7     9    1
    9     7    10    1
   10    10    11    1
   11    10    12    1
   12    10    13    1
   13    13    14    1
   14    13    15    1
   15    13    16    1
   16    16    17    1
   17    16    18    1
   18    16    19    1
   19    19    20    1
   20    19    21    1
   21    19    22    1
   22     1    23    1
   23    23    24    1
   24    23    25    1
   25    23    26    1
@<TRIPOS>SUBSTRUCTURE
       1 MOL1            1 RESIDUE      1      MOL     
@<SCITEGIC>MOL_PROPERTY
VM2 Rank
SciTegic.value.IntegerValue
54

@<SCITEGIC>MOL_PROPERTY
Conf_Id
SciTegic.value.IntegerValue
1085

@<SCITEGIC>MOL_PROPERTY
Probability
SciTegic.value.DoubleValue
0.67

@<SCITEGIC>MOL_PROPERTY
Sum Probability
SciTegic.value.DoubleValue
83.63

@<SCITEGIC>MOL_PROPERTY
Delta G
SciTegic.value.DoubleValue
1.381

@<SCITEGIC>MOL_PROPERTY
G
SciTegic.value.DoubleValue
76.847

@<SCITEGIC>MOL_PROPERTY
E
SciTegic.value.DoubleValue
44.164

@<SCITEGIC>MOL_PROPERTY
-TS
SciTegic.value.DoubleValue
32.683

@<SCITEGIC>MOL_PROPERTY
U+W
SciTegic.value.DoubleValue
22.702

@<SCITEGIC>MOL_PROPERTY
U
SciTegic.value.DoubleValue
72.375

@<SCITEGIC>MOL_PROPERTY
W
SciTegic.value.DoubleValue
-49.673

@<SCITEGIC>MOL_PROPERTY
W(PB)
SciTegic.value.DoubleValue
-51.923

@<SCITEGIC>MOL_PROPERTY
W(SA)
SciTegic.value.DoubleValue
2.250

@<SCITEGIC>MOL_PROPERTY
Valence
SciTegic.value.DoubleValue
2.386

@<SCITEGIC>MOL_PROPERTY
Coulomb
SciTegic.value.DoubleValue
69.689

@<SCITEGIC>MOL_PROPERTY
VdW
SciTegic.value.DoubleValue
0.300

@<SCITEGIC>MOL_PROPERTY
VdW6
SciTegic.value.DoubleValue
-7.604

@<SCITEGIC>MOL_PROPERTY
VdW12
SciTegic.value.DoubleValue
7.904

@<SCITEGIC>MOL_PROPERTY
Bond
SciTegic.value.DoubleValue
0.210

@<SCITEGIC>MOL_PROPERTY
Angle
SciTegic.value.DoubleValue
0.753

@<SCITEGIC>MOL_PROPERTY
Pdih
SciTegic.value.DoubleValue
1.423

@<SCITEGIC>MOL_PROPERTY
Idih
SciTegic.value.DoubleValue
0.000

@<SCITEGIC>MOL_PROPERTY
Tether
SciTegic.value.DoubleValue
0.000

@<TRIPOS>MOLECULE
guest-s12_vm2.mol2 : vm2 ligand conformer 55
          26          25           1
SMALL
USER_CHARGES
 
@<TRIPOS>ATOM
       1    N1      19.819697   18.399380   26.206823 N.4        1 MOL1        -0.4857
       2    H1      20.769079   18.034589   26.380124 H          1 MOL1         0.3650
       3    H2      19.184599   17.645245   26.513163 H          1 MOL1         0.3650
       4    C1      19.619848   18.660846   24.723301 C.3        1 MOL1         0.0209
       5    H3      18.623439   19.088835   24.587994 H          1 MOL1         0.0967
       6    H4      19.644107   17.691512   24.219813 H          1 MOL1         0.0967
       7    C2      20.679316   19.586129   24.087283 C.3        1 MOL1        -0.1378
       8    H5      20.658879   20.563242   24.586690 H          1 MOL1         0.0993
       9    H6      21.681030   19.168949   24.254959 H          1 MOL1         0.0993
      10    C3      20.451398   19.798875   22.572020 C.3        1 MOL1        -0.1338
      11    H7      21.184632   20.530031   22.204621 H          1 MOL1         0.0993
      12    H8      19.460539   20.246384   22.417752 H          1 MOL1         0.0993
      13    C4      20.579221   18.491540   21.749450 C.3        1 MOL1        -0.1338
      14    H9      21.532557   18.003901   21.995813 H          1 MOL1         0.0993
      15    H10     19.787383   17.786097   22.034724 H          1 MOL1         0.0993
      16    C5      20.526434   18.721582   20.219623 C.3        1 MOL1        -0.1313
      17    H11     20.724549   17.767073   19.712135 H          1 MOL1         0.0993
      18    H12     21.334156   19.402938   19.917702 H          1 MOL1         0.0993
      19    C6      19.169060   19.274767   19.728806 C.3        1 MOL1        -0.2328
      20    H13     19.152743   19.335880   18.632940 H          1 MOL1         0.1004
      21    H14     18.980065   20.282990   20.117699 H          1 MOL1         0.1004
      22    H15     18.341377   18.624656   20.040711 H          1 MOL1         0.1004
      23    C7      19.563025   19.656880   27.029694 C.3        1 MOL1        -0.0781
      24    H16     18.546755   20.008825   26.839524 H          1 MOL1         0.0978
      25    H17     19.678662   19.419738   28.089636 H          1 MOL1         0.0978
      26    H18     20.281809   20.428195   26.746128 H          1 MOL1         0.0978
@<TRIPOS>BOND
    1     1     2    1
    2     1     3    1
    3     1     4    1
    4     4     5    1
    5     4     6    1
    6     4     7    1
    7     7     8    1
    8     7     9    1
    9     7    10    1
   10    10    11    1
   11    10    12    1
   12    10    13    1
   13    13    14    1
   14    13    15    1
   15    13    16    1
   16    16    17    1
   17    16    18    1
   18    16    19    1
   19    19    20    1
   20    19    21    1
   21    19    22    1
   22     1    23    1
   23    23    24    1
   24    23    25    1
   25    23    26    1
@<TRIPOS>SUBSTRUCTURE
       1 MOL1            1 RESIDUE      1      MOL     
@<SCITEGIC>MOL_PROPERTY
VM2 Rank
SciTegic.value.IntegerValue
55

@<SCITEGIC>MOL_PROPERTY
Conf_Id
SciTegic.value.IntegerValue
251

@<SCITEGIC>MOL_PROPERTY
Probability
SciTegic.value.DoubleValue
0.66

@<SCITEGIC>MOL_PROPERTY
Sum Probability
SciTegic.value.DoubleValue
84.28

@<SCITEGIC>MOL_PROPERTY
Delta G
SciTegic.value.DoubleValue
1.398

@<SCITEGIC>MOL_PROPERTY
G
SciTegic.value.DoubleValue
76.864

@<SCITEGIC>MOL_PROPERTY
E
SciTegic.value.DoubleValue
44.315

@<SCITEGIC>MOL_PROPERTY
-TS
SciTegic.value.DoubleValue
32.549

@<SCITEGIC>MOL_PROPERTY
U+W
SciTegic.value.DoubleValue
22.853

@<SCITEGIC>MOL_PROPERTY
U
SciTegic.value.DoubleValue
72.218

@<SCITEGIC>MOL_PROPERTY
W
SciTegic.value.DoubleValue
-49.365

@<SCITEGIC>MOL_PROPERTY
W(PB)
SciTegic.value.DoubleValue
-51.633

@<SCITEGIC>MOL_PROPERTY
W(SA)
SciTegic.value.DoubleValue
2.268

@<SCITEGIC>MOL_PROPERTY
Valence
SciTegic.value.DoubleValue
2.805

@<SCITEGIC>MOL_PROPERTY
Coulomb
SciTegic.value.DoubleValue
68.814

@<SCITEGIC>MOL_PROPERTY
VdW
SciTegic.value.DoubleValue
0.600

@<SCITEGIC>MOL_PROPERTY
VdW6
SciTegic.value.DoubleValue
-7.202

@<SCITEGIC>MOL_PROPERTY
VdW12
SciTegic.value.DoubleValue
7.802

@<SCITEGIC>MOL_PROPERTY
Bond
SciTegic.value.DoubleValue
0.224

@<SCITEGIC>MOL_PROPERTY
Angle
SciTegic.value.DoubleValue
0.821

@<SCITEGIC>MOL_PROPERTY
Pdih
SciTegic.value.DoubleValue
1.760

@<SCITEGIC>MOL_PROPERTY
Idih
SciTegic.value.DoubleValue
0.000

@<SCITEGIC>MOL_PROPERTY
Tether
SciTegic.value.DoubleValue
0.000

@<TRIPOS>MOLECULE
guest-s12_vm2.mol2 : vm2 ligand conformer 56
          26          25           1
SMALL
USER_CHARGES
 
@<TRIPOS>ATOM
       1    N1      19.487569   19.203356   26.361951 N.4        1 MOL1        -0.4857
       2    H1      19.137202   18.283420   26.670826 H          1 MOL1         0.3650
       3    H2      18.886997   19.892073   26.842472 H          1 MOL1         0.3650
       4    C1      19.326327   19.349144   24.858162 C.3        1 MOL1         0.0209
       5    H3      19.744243   20.316539   24.570069 H          1 MOL1         0.0967
       6    H4      18.254223   19.365334   24.646211 H          1 MOL1         0.0967
       7    C2      19.983399   18.222550   24.032326 C.3        1 MOL1        -0.1378
       8    H5      21.068126   18.217025   24.200184 H          1 MOL1         0.0993
       9    H6      19.605925   17.254137   24.386261 H          1 MOL1         0.0993
      10    C3      19.698155   18.348225   22.516965 C.3        1 MOL1        -0.1338
      11    H7      18.612716   18.339402   22.346359 H          1 MOL1         0.0993
      12    H8      20.099142   17.457053   22.016973 H          1 MOL1         0.0993
      13    C4      20.317318   19.621681   21.886250 C.3        1 MOL1        -0.1338
      14    H9      19.935031   20.511230   22.404060 H          1 MOL1         0.0993
      15    H10     21.405392   19.619305   22.038998 H          1 MOL1         0.0993
      16    C5      20.008777   19.774153   20.376822 C.3        1 MOL1        -0.1313
      17    H11     20.380693   20.751550   20.038773 H          1 MOL1         0.0993
      18    H12     18.921244   19.788727   20.219098 H          1 MOL1         0.0993
      19    C6      20.646806   18.670910   19.501893 C.3        1 MOL1        -0.2328
      20    H13     20.214210   17.685587   19.714553 H          1 MOL1         0.1004
      21    H14     21.730736   18.614037   19.665760 H          1 MOL1         0.1004
      22    H15     20.479457   18.880546   18.437478 H          1 MOL1         0.1004
      23    C7      20.939648   19.399981   26.782631 C.3        1 MOL1        -0.0781
      24    H16     21.009847   19.323987   27.870005 H          1 MOL1         0.0978
      25    H17     21.557964   18.627940   26.320354 H          1 MOL1         0.0978
      26    H18     21.276166   20.387535   26.459641 H          1 MOL1         0.0978
@<TRIPOS>BOND
    1     1     2    1
    2     1     3    1
    3     1     4    1
    4     4     5    1
    5     4     6    1
    6     4     7    1
    7     7     8    1
    8     7     9    1
    9     7    10    1
   10    10    11    1
   11    10    12    1
   12    10    13    1
   13    13    14    1
   14    13    15    1
   15    13    16    1
   16    16    17    1
   17    16    18    1
   18    16    19    1
   19    19    20    1
   20    19    21    1
   21    19    22    1
   22     1    23    1
   23    23    24    1
   24    23    25    1
   25    23    26    1
@<TRIPOS>SUBSTRUCTURE
       1 MOL1            1 RESIDUE      1      MOL     
@<SCITEGIC>MOL_PROPERTY
VM2 Rank
SciTegic.value.IntegerValue
56

@<SCITEGIC>MOL_PROPERTY
Conf_Id
SciTegic.value.IntegerValue
559

@<SCITEGIC>MOL_PROPERTY
Probability
SciTegic.value.DoubleValue
0.64

@<SCITEGIC>MOL_PROPERTY
Sum Probability
SciTegic.value.DoubleValue
84.93

@<SCITEGIC>MOL_PROPERTY
Delta G
SciTegic.value.DoubleValue
1.410

@<SCITEGIC>MOL_PROPERTY
G
SciTegic.value.DoubleValue
76.876

@<SCITEGIC>MOL_PROPERTY
E
SciTegic.value.DoubleValue
44.362

@<SCITEGIC>MOL_PROPERTY
-TS
SciTegic.value.DoubleValue
32.514

@<SCITEGIC>MOL_PROPERTY
U+W
SciTegic.value.DoubleValue
22.901

@<SCITEGIC>MOL_PROPERTY
U
SciTegic.value.DoubleValue
72.180

@<SCITEGIC>MOL_PROPERTY
W
SciTegic.value.DoubleValue
-49.280

@<SCITEGIC>MOL_PROPERTY
W(PB)
SciTegic.value.DoubleValue
-51.574

@<SCITEGIC>MOL_PROPERTY
W(SA)
SciTegic.value.DoubleValue
2.294

@<SCITEGIC>MOL_PROPERTY
Valence
SciTegic.value.DoubleValue
2.842

@<SCITEGIC>MOL_PROPERTY
Coulomb
SciTegic.value.DoubleValue
68.728

@<SCITEGIC>MOL_PROPERTY
VdW
SciTegic.value.DoubleValue
0.611

@<SCITEGIC>MOL_PROPERTY
VdW6
SciTegic.value.DoubleValue
-7.185

@<SCITEGIC>MOL_PROPERTY
VdW12
SciTegic.value.DoubleValue
7.795

@<SCITEGIC>MOL_PROPERTY
Bond
SciTegic.value.DoubleValue
0.227

@<SCITEGIC>MOL_PROPERTY
Angle
SciTegic.value.DoubleValue
0.860

@<SCITEGIC>MOL_PROPERTY
Pdih
SciTegic.value.DoubleValue
1.755

@<SCITEGIC>MOL_PROPERTY
Idih
SciTegic.value.DoubleValue
0.000

@<SCITEGIC>MOL_PROPERTY
Tether
SciTegic.value.DoubleValue
0.000

@<TRIPOS>MOLECULE
guest-s12_vm2.mol2 : vm2 ligand conformer 57
          26          25           1
SMALL
USER_CHARGES
 
@<TRIPOS>ATOM
       1    N1      20.209306   18.439460   26.220710 N.4        1 MOL1        -0.4857
       2    H1      20.960997   17.827493   26.576195 H          1 MOL1         0.3650
       3    H2      19.343765   17.888679   26.329843 H          1 MOL1         0.3650
       4    C1      20.455325   18.746457   24.752931 C.3        1 MOL1         0.0209
       5    H3      20.663398   17.795909   24.256077 H          1 MOL1         0.0967
       6    H4      21.351239   19.368528   24.684535 H          1 MOL1         0.0967
       7    C2      19.277421   19.442146   24.037602 C.3        1 MOL1        -0.1378
       8    H5      18.371929   18.829239   24.137665 H          1 MOL1         0.0993
       9    H6      19.064169   20.399466   24.530180 H          1 MOL1         0.0993
      10    C3      19.563036   19.707603   22.540541 C.3        1 MOL1        -0.1338
      11    H7      20.450744   20.348036   22.452870 H          1 MOL1         0.0993
      12    H8      18.724237   20.277309   22.117395 H          1 MOL1         0.0993
      13    C4      19.761240   18.407491   21.720475 C.3        1 MOL1        -0.1338
      14    H9      20.657882   17.875512   22.065547 H          1 MOL1         0.0993
      15    H10     18.911937   17.734663   21.903006 H          1 MOL1         0.0993
      16    C5      19.873161   18.654444   20.196478 C.3        1 MOL1        -0.1313
      17    H11     18.967027   19.159658   19.833849 H          1 MOL1         0.0993
      18    H12     19.909107   17.683261   19.683260 H          1 MOL1         0.0993
      19    C6      21.120809   19.475356   19.797917 C.3        1 MOL1        -0.2328
      20    H13     21.201102   19.546313   18.705470 H          1 MOL1         0.1004
      21    H14     22.039386   19.004768   20.171750 H          1 MOL1         0.1004
      22    H15     21.073300   20.498154   20.191744 H          1 MOL1         0.1004
      23    C7      20.147701   19.717043   27.050346 C.3        1 MOL1        -0.0781
      24    H16     20.008570   19.453915   28.101294 H          1 MOL1         0.0978
      25    H17     21.082392   20.268873   26.929222 H          1 MOL1         0.0978
      26    H18     19.309247   20.328767   26.711557 H          1 MOL1         0.0978
@<TRIPOS>BOND
    1     1     2    1
    2     1     3    1
    3     1     4    1
    4     4     5    1
    5     4     6    1
    6     4     7    1
    7     7     8    1
    8     7     9    1
    9     7    10    1
   10    10    11    1
   11    10    12    1
   12    10    13    1
   13    13    14    1
   14    13    15    1
   15    13    16    1
   16    16    17    1
   17    16    18    1
   18    16    19    1
   19    19    20    1
   20    19    21    1
   21    19    22    1
   22     1    23    1
   23    23    24    1
   24    23    25    1
   25    23    26    1
@<TRIPOS>SUBSTRUCTURE
       1 MOL1            1 RESIDUE      1      MOL     
@<SCITEGIC>MOL_PROPERTY
VM2 Rank
SciTegic.value.IntegerValue
57

@<SCITEGIC>MOL_PROPERTY
Conf_Id
SciTegic.value.IntegerValue
846

@<SCITEGIC>MOL_PROPERTY
Probability
SciTegic.value.DoubleValue
0.61

@<SCITEGIC>MOL_PROPERTY
Sum Probability
SciTegic.value.DoubleValue
85.54

@<SCITEGIC>MOL_PROPERTY
Delta G
SciTegic.value.DoubleValue
1.439

@<SCITEGIC>MOL_PROPERTY
G
SciTegic.value.DoubleValue
76.905

@<SCITEGIC>MOL_PROPERTY
E
SciTegic.value.DoubleValue
44.356

@<SCITEGIC>MOL_PROPERTY
-TS
SciTegic.value.DoubleValue
32.549

@<SCITEGIC>MOL_PROPERTY
U+W
SciTegic.value.DoubleValue
22.894

@<SCITEGIC>MOL_PROPERTY
U
SciTegic.value.DoubleValue
72.218

@<SCITEGIC>MOL_PROPERTY
W
SciTegic.value.DoubleValue
-49.324

@<SCITEGIC>MOL_PROPERTY
W(PB)
SciTegic.value.DoubleValue
-51.599

@<SCITEGIC>MOL_PROPERTY
W(SA)
SciTegic.value.DoubleValue
2.275

@<SCITEGIC>MOL_PROPERTY
Valence
SciTegic.value.DoubleValue
2.805

@<SCITEGIC>MOL_PROPERTY
Coulomb
SciTegic.value.DoubleValue
68.813

@<SCITEGIC>MOL_PROPERTY
VdW
SciTegic.value.DoubleValue
0.600

@<SCITEGIC>MOL_PROPERTY
VdW6
SciTegic.value.DoubleValue
-7.202

@<SCITEGIC>MOL_PROPERTY
VdW12
SciTegic.value.DoubleValue
7.801

@<SCITEGIC>MOL_PROPERTY
Bond
SciTegic.value.DoubleValue
0.224

@<SCITEGIC>MOL_PROPERTY
Angle
SciTegic.value.DoubleValue
0.821

@<SCITEGIC>MOL_PROPERTY
Pdih
SciTegic.value.DoubleValue
1.760

@<SCITEGIC>MOL_PROPERTY
Idih
SciTegic.value.DoubleValue
0.000

@<SCITEGIC>MOL_PROPERTY
Tether
SciTegic.value.DoubleValue
0.000

@<TRIPOS>MOLECULE
guest-s12_vm2.mol2 : vm2 ligand conformer 58
          26          25           1
SMALL
USER_CHARGES
 
@<TRIPOS>ATOM
       1    N1      20.360054   19.292542   26.392852 N.4        1 MOL1        -0.4857
       2    H1      20.773884   20.084944   26.909343 H          1 MOL1         0.3650
       3    H2      20.866541   18.460187   26.732112 H          1 MOL1         0.3650
       4    C1      20.593505   19.478677   24.903060 C.3        1 MOL1         0.0209
       5    H3      21.652350   19.712852   24.766672 H          1 MOL1         0.0967
       6    H4      20.009842   20.343610   24.579439 H          1 MOL1         0.0967
       7    C2      20.237382   18.248416   24.041318 C.3        1 MOL1        -0.1378
       8    H5      20.777357   17.373906   24.427636 H          1 MOL1         0.0993
       9    H6      19.167197   18.022262   24.132962 H          1 MOL1         0.0993
      10    C3      20.596500   18.440182   22.548759 C.3        1 MOL1        -0.1338
      11    H7      20.420384   17.489873   22.028308 H          1 MOL1         0.0993
      12    H8      21.670424   18.652721   22.454554 H          1 MOL1         0.0993
      13    C4      19.777767   19.566253   21.867218 C.3        1 MOL1        -0.1338
      14    H9      18.704808   19.342144   21.943227 H          1 MOL1         0.0993
      15    H10     19.934411   20.510997   22.404328 H          1 MOL1         0.0993
      16    C5      20.154093   19.789276   20.382140 C.3        1 MOL1        -0.1313
      17    H11     21.224354   20.025471   20.301074 H          1 MOL1         0.0993
      18    H12     19.616169   20.673287   20.011919 H          1 MOL1         0.0993
      19    C6      19.816348   18.585953   19.472377 C.3        1 MOL1        -0.2328
      20    H13     20.011844   18.833067   18.420879 H          1 MOL1         0.1004
      21    H14     18.757792   18.308942   19.560197 H          1 MOL1         0.1004
      22    H15     20.424040   17.707467   19.721775 H          1 MOL1         0.1004
      23    C7      18.872351   19.188701   26.709276 C.3        1 MOL1        -0.0781
      24    H16     18.742892   19.092312   27.789569 H          1 MOL1         0.0978
      25    H17     18.366732   20.090180   26.356409 H          1 MOL1         0.0978
      26    H18     18.456740   18.310986   26.210333 H          1 MOL1         0.0978
@<TRIPOS>BOND
    1     1     2    1
    2     1     3    1
    3     1     4    1
    4     4     5    1
    5     4     6    1
    6     4     7    1
    7     7     8    1
    8     7     9    1
    9     7    10    1
   10    10    11    1
   11    10    12    1
   12    10    13    1
   13    13    14    1
   14    13    15    1
   15    13    16    1
   16    16    17    1
   17    16    18    1
   18    16    19    1
   19    19    20    1
   20    19    21    1
   21    19    22    1
   22     1    23    1
   23    23    24    1
   24    23    25    1
   25    23    26    1
@<TRIPOS>SUBSTRUCTURE
       1 MOL1            1 RESIDUE      1      MOL     
@<SCITEGIC>MOL_PROPERTY
VM2 Rank
SciTegic.value.IntegerValue
58

@<SCITEGIC>MOL_PROPERTY
Conf_Id
SciTegic.value.IntegerValue
1551

@<SCITEGIC>MOL_PROPERTY
Probability
SciTegic.value.DoubleValue
0.56

@<SCITEGIC>MOL_PROPERTY
Sum Probability
SciTegic.value.DoubleValue
86.10

@<SCITEGIC>MOL_PROPERTY
Delta G
SciTegic.value.DoubleValue
1.493

@<SCITEGIC>MOL_PROPERTY
G
SciTegic.value.DoubleValue
76.959

@<SCITEGIC>MOL_PROPERTY
E
SciTegic.value.DoubleValue
44.445

@<SCITEGIC>MOL_PROPERTY
-TS
SciTegic.value.DoubleValue
32.514

@<SCITEGIC>MOL_PROPERTY
U+W
SciTegic.value.DoubleValue
22.984

@<SCITEGIC>MOL_PROPERTY
U
SciTegic.value.DoubleValue
72.180

@<SCITEGIC>MOL_PROPERTY
W
SciTegic.value.DoubleValue
-49.197

@<SCITEGIC>MOL_PROPERTY
W(PB)
SciTegic.value.DoubleValue
-51.483

@<SCITEGIC>MOL_PROPERTY
W(SA)
SciTegic.value.DoubleValue
2.286

@<SCITEGIC>MOL_PROPERTY
Valence
SciTegic.value.DoubleValue
2.842

@<SCITEGIC>MOL_PROPERTY
Coulomb
SciTegic.value.DoubleValue
68.728

@<SCITEGIC>MOL_PROPERTY
VdW
SciTegic.value.DoubleValue
0.610

@<SCITEGIC>MOL_PROPERTY
VdW6
SciTegic.value.DoubleValue
-7.185

@<SCITEGIC>MOL_PROPERTY
VdW12
SciTegic.value.DoubleValue
7.795

@<SCITEGIC>MOL_PROPERTY
Bond
SciTegic.value.DoubleValue
0.227

@<SCITEGIC>MOL_PROPERTY
Angle
SciTegic.value.DoubleValue
0.860

@<SCITEGIC>MOL_PROPERTY
Pdih
SciTegic.value.DoubleValue
1.755

@<SCITEGIC>MOL_PROPERTY
Idih
SciTegic.value.DoubleValue
0.000

@<SCITEGIC>MOL_PROPERTY
Tether
SciTegic.value.DoubleValue
0.000

@<TRIPOS>MOLECULE
guest-s12_vm2.mol2 : vm2 ligand conformer 59
          26          25           1
SMALL
USER_CHARGES
 
@<TRIPOS>ATOM
       1    N1      20.032700   19.027402   26.294731 N.4        1 MOL1        -0.4857
       2    H1      20.864117   18.433246   26.436643 H          1 MOL1         0.3650
       3    H2      19.430804   18.842747   27.112994 H          1 MOL1         0.3650
       4    C1      19.304461   18.617504   25.025540 C.3        1 MOL1         0.0209
       5    H3      18.457286   19.294477   24.889982 H          1 MOL1         0.0967
       6    H4      18.911318   17.610653   25.187813 H          1 MOL1         0.0967
       7    C2      20.181266   18.614253   23.756881 C.3        1 MOL1        -0.1378
       8    H5      20.557785   19.627711   23.572725 H          1 MOL1         0.0993
       9    H6      21.054055   17.968133   23.918720 H          1 MOL1         0.0993
      10    C3      19.386765   18.117443   22.526300 C.3        1 MOL1        -0.1338
      11    H7      18.534917   18.785119   22.340267 H          1 MOL1         0.0993
      12    H8      18.953956   17.133500   22.754497 H          1 MOL1         0.0993
      13    C4      20.247267   17.986415   21.242724 C.3        1 MOL1        -0.1338
      14    H9      21.025562   17.229129   21.410097 H          1 MOL1         0.0993
      15    H10     19.615661   17.593416   20.434106 H          1 MOL1         0.0993
      16    C5      20.921215   19.296320   20.759618 C.3        1 MOL1        -0.1313
      17    H11     21.496651   19.077841   19.849168 H          1 MOL1         0.0993
      18    H12     21.654087   19.642383   21.500728 H          1 MOL1         0.0993
      19    C6      19.915311   20.428854   20.452166 C.3        1 MOL1        -0.2328
      20    H13     19.160101   20.099763   19.726705 H          1 MOL1         0.1004
      21    H14     20.433160   21.298138   20.026693 H          1 MOL1         0.1004
      22    H15     19.397798   20.764695   21.359369 H          1 MOL1         0.1004
      23    C7      20.419015   20.501809   26.259041 C.3        1 MOL1        -0.0781
      24    H16     19.518555   21.105461   26.126311 H          1 MOL1         0.0978
      25    H17     20.904709   20.766533   27.200908 H          1 MOL1         0.0978
      26    H18     21.107699   20.675658   25.429877 H          1 MOL1         0.0978
@<TRIPOS>BOND
    1     1     2    1
    2     1     3    1
    3     1     4    1
    4     4     5    1
    5     4     6    1
    6     4     7    1
    7     7     8    1
    8     7     9    1
    9     7    10    1
   10    10    11    1
   11    10    12    1
   12    10    13    1
   13    13    14    1
   14    13    15    1
   15    13    16    1
   16    16    17    1
   17    16    18    1
   18    16    19    1
   19    19    20    1
   20    19    21    1
   21    19    22    1
   22     1    23    1
   23    23    24    1
   24    23    25    1
   25    23    26    1
@<TRIPOS>SUBSTRUCTURE
       1 MOL1            1 RESIDUE      1      MOL     
@<SCITEGIC>MOL_PROPERTY
VM2 Rank
SciTegic.value.IntegerValue
59

@<SCITEGIC>MOL_PROPERTY
Conf_Id
SciTegic.value.IntegerValue
1567

@<SCITEGIC>MOL_PROPERTY
Probability
SciTegic.value.DoubleValue
0.53

@<SCITEGIC>MOL_PROPERTY
Sum Probability
SciTegic.value.DoubleValue
86.63

@<SCITEGIC>MOL_PROPERTY
Delta G
SciTegic.value.DoubleValue
1.521

@<SCITEGIC>MOL_PROPERTY
G
SciTegic.value.DoubleValue
76.987

@<SCITEGIC>MOL_PROPERTY
E
SciTegic.value.DoubleValue
44.221

@<SCITEGIC>MOL_PROPERTY
-TS
SciTegic.value.DoubleValue
32.766

@<SCITEGIC>MOL_PROPERTY
U+W
SciTegic.value.DoubleValue
22.759

@<SCITEGIC>MOL_PROPERTY
U
SciTegic.value.DoubleValue
72.216

@<SCITEGIC>MOL_PROPERTY
W
SciTegic.value.DoubleValue
-49.457

@<SCITEGIC>MOL_PROPERTY
W(PB)
SciTegic.value.DoubleValue
-51.691

@<SCITEGIC>MOL_PROPERTY
W(SA)
SciTegic.value.DoubleValue
2.234

@<SCITEGIC>MOL_PROPERTY
Valence
SciTegic.value.DoubleValue
2.957

@<SCITEGIC>MOL_PROPERTY
Coulomb
SciTegic.value.DoubleValue
68.762

@<SCITEGIC>MOL_PROPERTY
VdW
SciTegic.value.DoubleValue
0.496

@<SCITEGIC>MOL_PROPERTY
VdW6
SciTegic.value.DoubleValue
-7.593

@<SCITEGIC>MOL_PROPERTY
VdW12
SciTegic.value.DoubleValue
8.090

@<SCITEGIC>MOL_PROPERTY
Bond
SciTegic.value.DoubleValue
0.241

@<SCITEGIC>MOL_PROPERTY
Angle
SciTegic.value.DoubleValue
1.122

@<SCITEGIC>MOL_PROPERTY
Pdih
SciTegic.value.DoubleValue
1.593

@<SCITEGIC>MOL_PROPERTY
Idih
SciTegic.value.DoubleValue
0.000

@<SCITEGIC>MOL_PROPERTY
Tether
SciTegic.value.DoubleValue
0.000

@<TRIPOS>MOLECULE
guest-s12_vm2.mol2 : vm2 ligand conformer 60
          26          25           1
SMALL
USER_CHARGES
 
@<TRIPOS>ATOM
       1    N1      19.870122   18.298563   26.125982 N.4        1 MOL1        -0.4857
       2    H1      20.439598   17.864342   26.869686 H          1 MOL1         0.3650
       3    H2      19.247126   17.546087   25.794291 H          1 MOL1         0.3650
       4    C1      20.776470   18.765556   24.999168 C.3        1 MOL1         0.0209
       5    H3      21.438351   17.932600   24.748669 H          1 MOL1         0.0967
       6    H4      21.391648   19.584810   25.379632 H          1 MOL1         0.0967
       7    C2      20.033840   19.215536   23.724673 C.3        1 MOL1        -0.1378
       8    H5      19.380684   18.401398   23.386510 H          1 MOL1         0.0993
       9    H6      19.389901   20.074338   23.953551 H          1 MOL1         0.0993
      10    C3      21.026500   19.600289   22.602631 C.3        1 MOL1        -0.1338
      11    H7      21.644267   18.731458   22.338976 H          1 MOL1         0.0993
      12    H8      21.722239   20.359014   22.987142 H          1 MOL1         0.0993
      13    C4      20.339458   20.166720   21.332886 C.3        1 MOL1        -0.1338
      14    H9      19.819856   21.099075   21.593595 H          1 MOL1         0.0993
      15    H10     21.115896   20.448807   20.608449 H          1 MOL1         0.0993
      16    C5      19.333291   19.211176   20.641610 C.3        1 MOL1        -0.1313
      17    H11     18.915111   19.720895   19.762356 H          1 MOL1         0.0993
      18    H12     18.481214   19.011766   21.305166 H          1 MOL1         0.0993
      19    C6      19.965351   17.875607   20.188029 C.3        1 MOL1        -0.2328
      20    H13     20.832268   18.050004   19.537660 H          1 MOL1         0.1004
      21    H14     19.237688   17.277628   19.624311 H          1 MOL1         0.1004
      22    H15     20.293385   17.274128   21.044890 H          1 MOL1         0.1004
      23    C7      19.062967   19.456552   26.702021 C.3        1 MOL1        -0.0781
      24    H16     18.415536   19.868169   25.925200 H          1 MOL1         0.0978
      25    H17     18.453687   19.089635   27.531018 H          1 MOL1         0.0978
      26    H18     19.747995   20.227663   27.061135 H          1 MOL1         0.0978
@<TRIPOS>BOND
    1     1     2    1
    2     1     3    1
    3     1     4    1
    4     4     5    1
    5     4     6    1
    6     4     7    1
    7     7     8    1
    8     7     9    1
    9     7    10    1
   10    10    11    1
   11    10    12    1
   12    10    13    1
   13    13    14    1
   14    13    15    1
   15    13    16    1
   16    16    17    1
   17    16    18    1
   18    16    19    1
   19    19    20    1
   20    19    21    1
   21    19    22    1
   22     1    23    1
   23    23    24    1
   24    23    25    1
   25    23    26    1
@<TRIPOS>SUBSTRUCTURE
       1 MOL1            1 RESIDUE      1      MOL     
@<SCITEGIC>MOL_PROPERTY
VM2 Rank
SciTegic.value.IntegerValue
60

@<SCITEGIC>MOL_PROPERTY
Conf_Id
SciTegic.value.IntegerValue
1001

@<SCITEGIC>MOL_PROPERTY
Probability
SciTegic.value.DoubleValue
0.52

@<SCITEGIC>MOL_PROPERTY
Sum Probability
SciTegic.value.DoubleValue
87.14

@<SCITEGIC>MOL_PROPERTY
Delta G
SciTegic.value.DoubleValue
1.540

@<SCITEGIC>MOL_PROPERTY
G
SciTegic.value.DoubleValue
77.006

@<SCITEGIC>MOL_PROPERTY
E
SciTegic.value.DoubleValue
44.245

@<SCITEGIC>MOL_PROPERTY
-TS
SciTegic.value.DoubleValue
32.761

@<SCITEGIC>MOL_PROPERTY
U+W
SciTegic.value.DoubleValue
22.783

@<SCITEGIC>MOL_PROPERTY
U
SciTegic.value.DoubleValue
72.256

@<SCITEGIC>MOL_PROPERTY
W
SciTegic.value.DoubleValue
-49.473

@<SCITEGIC>MOL_PROPERTY
W(PB)
SciTegic.value.DoubleValue
-51.710

@<SCITEGIC>MOL_PROPERTY
W(SA)
SciTegic.value.DoubleValue
2.238

@<SCITEGIC>MOL_PROPERTY
Valence
SciTegic.value.DoubleValue
2.959

@<SCITEGIC>MOL_PROPERTY
Coulomb
SciTegic.value.DoubleValue
68.784

@<SCITEGIC>MOL_PROPERTY
VdW
SciTegic.value.DoubleValue
0.514

@<SCITEGIC>MOL_PROPERTY
VdW6
SciTegic.value.DoubleValue
-7.552

@<SCITEGIC>MOL_PROPERTY
VdW12
SciTegic.value.DoubleValue
8.066

@<SCITEGIC>MOL_PROPERTY
Bond
SciTegic.value.DoubleValue
0.240

@<SCITEGIC>MOL_PROPERTY
Angle
SciTegic.value.DoubleValue
1.124

@<SCITEGIC>MOL_PROPERTY
Pdih
SciTegic.value.DoubleValue
1.594

@<SCITEGIC>MOL_PROPERTY
Idih
SciTegic.value.DoubleValue
0.000

@<SCITEGIC>MOL_PROPERTY
Tether
SciTegic.value.DoubleValue
0.000

@<TRIPOS>MOLECULE
guest-s12_vm2.mol2 : vm2 ligand conformer 61
          26          25           1
SMALL
USER_CHARGES
 
@<TRIPOS>ATOM
       1    N1      19.868872   19.010193   26.289007 N.4        1 MOL1        -0.4857
       2    H1      20.437563   18.949363   27.148553 H          1 MOL1         0.3650
       3    H2      19.171962   18.254574   26.377161 H          1 MOL1         0.3650
       4    C1      20.753221   18.770455   25.076714 C.3        1 MOL1         0.0209
       5    H3      21.335344   17.866528   25.273414 H          1 MOL1         0.0967
       6    H4      21.447997   19.610141   24.995553 H          1 MOL1         0.0967
       7    C2      19.986983   18.593811   23.750074 C.3        1 MOL1        -0.1378
       8    H5      19.258780   17.778930   23.855497 H          1 MOL1         0.0993
       9    H6      19.421440   19.507934   23.532548 H          1 MOL1         0.0993
      10    C3      20.951371   18.282262   22.581623 C.3        1 MOL1        -0.1338
      11    H7      21.562475   17.408299   22.846719 H          1 MOL1         0.0993
      12    H8      21.656476   19.113943   22.450562 H          1 MOL1         0.0993
      13    C4      20.228692   17.984429   21.242133 C.3        1 MOL1        -0.1338
      14    H9      20.983101   17.737309   20.482503 H          1 MOL1         0.0993
      15    H10     19.615210   17.080608   21.360397 H          1 MOL1         0.0993
      16    C5      19.332416   19.128967   20.703458 C.3        1 MOL1        -0.1313
      17    H11     18.493677   19.309604   21.389016 H          1 MOL1         0.0993
      18    H12     18.880013   18.802200   19.756710 H          1 MOL1         0.0993
      19    C6      20.099689   20.448183   20.458570 C.3        1 MOL1        -0.2328
      20    H13     20.471396   20.877719   21.397164 H          1 MOL1         0.1004
      21    H14     19.443341   21.193802   19.991550 H          1 MOL1         0.1004
      22    H15     20.955599   20.288681   19.790054 H          1 MOL1         0.1004
      23    C7      19.186755   20.371699   26.215421 C.3        1 MOL1        -0.0781
      24    H16     18.536331   20.403875   25.339101 H          1 MOL1         0.0978
      25    H17     18.592188   20.522469   27.119219 H          1 MOL1         0.0978
      26    H18     19.948380   21.150953   26.141056 H          1 MOL1         0.0978
@<TRIPOS>BOND
    1     1     2    1
    2     1     3    1
    3     1     4    1
    4     4     5    1
    5     4     6    1
    6     4     7    1
    7     7     8    1
    8     7     9    1
    9     7    10    1
   10    10    11    1
   11    10    12    1
   12    10    13    1
   13    13    14    1
   14    13    15    1
   15    13    16    1
   16    16    17    1
   17    16    18    1
   18    16    19    1
   19    19    20    1
   20    19    21    1
   21    19    22    1
   22     1    23    1
   23    23    24    1
   24    23    25    1
   25    23    26    1
@<TRIPOS>SUBSTRUCTURE
       1 MOL1            1 RESIDUE      1      MOL     
@<SCITEGIC>MOL_PROPERTY
VM2 Rank
SciTegic.value.IntegerValue
61

@<SCITEGIC>MOL_PROPERTY
Conf_Id
SciTegic.value.IntegerValue
1469

@<SCITEGIC>MOL_PROPERTY
Probability
SciTegic.value.DoubleValue
0.51

@<SCITEGIC>MOL_PROPERTY
Sum Probability
SciTegic.value.DoubleValue
87.65

@<SCITEGIC>MOL_PROPERTY
Delta G
SciTegic.value.DoubleValue
1.552

@<SCITEGIC>MOL_PROPERTY
G
SciTegic.value.DoubleValue
77.018

@<SCITEGIC>MOL_PROPERTY
E
SciTegic.value.DoubleValue
44.253

@<SCITEGIC>MOL_PROPERTY
-TS
SciTegic.value.DoubleValue
32.766

@<SCITEGIC>MOL_PROPERTY
U+W
SciTegic.value.DoubleValue
22.791

@<SCITEGIC>MOL_PROPERTY
U
SciTegic.value.DoubleValue
72.216

@<SCITEGIC>MOL_PROPERTY
W
SciTegic.value.DoubleValue
-49.425

@<SCITEGIC>MOL_PROPERTY
W(PB)
SciTegic.value.DoubleValue
-51.679

@<SCITEGIC>MOL_PROPERTY
W(SA)
SciTegic.value.DoubleValue
2.253

@<SCITEGIC>MOL_PROPERTY
Valence
SciTegic.value.DoubleValue
2.957

@<SCITEGIC>MOL_PROPERTY
Coulomb
SciTegic.value.DoubleValue
68.762

@<SCITEGIC>MOL_PROPERTY
VdW
SciTegic.value.DoubleValue
0.497

@<SCITEGIC>MOL_PROPERTY
VdW6
SciTegic.value.DoubleValue
-7.593

@<SCITEGIC>MOL_PROPERTY
VdW12
SciTegic.value.DoubleValue
8.090

@<SCITEGIC>MOL_PROPERTY
Bond
SciTegic.value.DoubleValue
0.242

@<SCITEGIC>MOL_PROPERTY
Angle
SciTegic.value.DoubleValue
1.122

@<SCITEGIC>MOL_PROPERTY
Pdih
SciTegic.value.DoubleValue
1.593

@<SCITEGIC>MOL_PROPERTY
Idih
SciTegic.value.DoubleValue
0.000

@<SCITEGIC>MOL_PROPERTY
Tether
SciTegic.value.DoubleValue
0.000

@<TRIPOS>MOLECULE
guest-s12_vm2.mol2 : vm2 ligand conformer 62
          26          25           1
SMALL
USER_CHARGES
 
@<TRIPOS>ATOM
       1    N1      19.837727   18.114246   25.782617 N.4        1 MOL1        -0.4857
       2    H1      20.408347   17.303127   26.069583 H          1 MOL1         0.3650
       3    H2      18.929216   17.714598   25.501277 H          1 MOL1         0.3650
       4    C1      20.496468   18.806438   24.601097 C.3        1 MOL1         0.0209
       5    H3      20.743584   18.031740   23.871218 H          1 MOL1         0.0967
       6    H4      21.430051   19.254397   24.950429 H          1 MOL1         0.0967
       7    C2      19.622517   19.879847   23.918028 C.3        1 MOL1        -0.1378
       8    H5      18.668806   19.435849   23.606167 H          1 MOL1         0.0993
       9    H6      19.372403   20.663798   24.644223 H          1 MOL1         0.0993
      10    C3      20.323686   20.539160   22.703927 C.3        1 MOL1        -0.1338
      11    H7      21.204079   21.092183   23.059679 H          1 MOL1         0.0993
      12    H8      19.650873   21.291363   22.269413 H          1 MOL1         0.0993
      13    C4      20.770991   19.555309   21.591562 C.3        1 MOL1        -0.1338
      14    H9      21.269947   20.132135   20.800545 H          1 MOL1         0.0993
      15    H10     21.528890   18.863695   21.983197 H          1 MOL1         0.0993
      16    C5      19.604654   18.752686   20.967866 C.3        1 MOL1        -0.1313
      17    H11     18.826780   19.443321   20.613329 H          1 MOL1         0.0993
      18    H12     19.138497   18.109924   21.726477 H          1 MOL1         0.0993
      19    C6      20.082718   17.873291   19.792757 C.3        1 MOL1        -0.2328
      20    H13     19.244006   17.309347   19.364345 H          1 MOL1         0.1004
      21    H14     20.840424   17.150857   20.123141 H          1 MOL1         0.1004
      22    H15     20.519734   18.485427   18.993077 H          1 MOL1         0.1004
      23    C7      19.669239   19.069022   26.959146 C.3        1 MOL1        -0.0781
      24    H16     20.647397   19.461429   27.245591 H          1 MOL1         0.0978
      25    H17     19.011070   19.889981   26.667914 H          1 MOL1         0.0978
      26    H18     19.229362   18.526591   27.798999 H          1 MOL1         0.0978
@<TRIPOS>BOND
    1     1     2    1
    2     1     3    1
    3     1     4    1
    4     4     5    1
    5     4     6    1
    6     4     7    1
    7     7     8    1
    8     7     9    1
    9     7    10    1
   10    10    11    1
   11    10    12    1
   12    10    13    1
   13    13    14    1
   14    13    15    1
   15    13    16    1
   16    16    17    1
   17    16    18    1
   18    16    19    1
   19    19    20    1
   20    19    21    1
   21    19    22    1
   22     1    23    1
   23    23    24    1
   24    23    25    1
   25    23    26    1
@<TRIPOS>SUBSTRUCTURE
       1 MOL1            1 RESIDUE      1      MOL     
@<SCITEGIC>MOL_PROPERTY
VM2 Rank
SciTegic.value.IntegerValue
62

@<SCITEGIC>MOL_PROPERTY
Conf_Id
SciTegic.value.IntegerValue
835

@<SCITEGIC>MOL_PROPERTY
Probability
SciTegic.value.DoubleValue
0.50

@<SCITEGIC>MOL_PROPERTY
Sum Probability
SciTegic.value.DoubleValue
88.15

@<SCITEGIC>MOL_PROPERTY
Delta G
SciTegic.value.DoubleValue
1.559

@<SCITEGIC>MOL_PROPERTY
G
SciTegic.value.DoubleValue
77.025

@<SCITEGIC>MOL_PROPERTY
E
SciTegic.value.DoubleValue
44.352

@<SCITEGIC>MOL_PROPERTY
-TS
SciTegic.value.DoubleValue
32.672

@<SCITEGIC>MOL_PROPERTY
U+W
SciTegic.value.DoubleValue
22.890

@<SCITEGIC>MOL_PROPERTY
U
SciTegic.value.DoubleValue
72.548

@<SCITEGIC>MOL_PROPERTY
W
SciTegic.value.DoubleValue
-49.658

@<SCITEGIC>MOL_PROPERTY
W(PB)
SciTegic.value.DoubleValue
-51.921

@<SCITEGIC>MOL_PROPERTY
W(SA)
SciTegic.value.DoubleValue
2.263

@<SCITEGIC>MOL_PROPERTY
Valence
SciTegic.value.DoubleValue
2.777

@<SCITEGIC>MOL_PROPERTY
Coulomb
SciTegic.value.DoubleValue
69.321

@<SCITEGIC>MOL_PROPERTY
VdW
SciTegic.value.DoubleValue
0.450

@<SCITEGIC>MOL_PROPERTY
VdW6
SciTegic.value.DoubleValue
-7.543

@<SCITEGIC>MOL_PROPERTY
VdW12
SciTegic.value.DoubleValue
7.993

@<SCITEGIC>MOL_PROPERTY
Bond
SciTegic.value.DoubleValue
0.232

@<SCITEGIC>MOL_PROPERTY
Angle
SciTegic.value.DoubleValue
0.993

@<SCITEGIC>MOL_PROPERTY
Pdih
SciTegic.value.DoubleValue
1.552

@<SCITEGIC>MOL_PROPERTY
Idih
SciTegic.value.DoubleValue
0.000

@<SCITEGIC>MOL_PROPERTY
Tether
SciTegic.value.DoubleValue
0.000

@<TRIPOS>MOLECULE
guest-s12_vm2.mol2 : vm2 ligand conformer 63
          26          25           1
SMALL
USER_CHARGES
 
@<TRIPOS>ATOM
       1    N1      20.184597   18.330487   26.137153 N.4        1 MOL1        -0.4857
       2    H1      20.967738   17.720861   25.855355 H          1 MOL1         0.3650
       3    H2      19.663201   17.785448   26.842153 H          1 MOL1         0.3650
       4    C1      19.284246   18.613937   24.946235 C.3        1 MOL1         0.0209
       5    H3      18.491947   19.290246   25.276749 H          1 MOL1         0.0967
       6    H4      18.822347   17.666834   24.655895 H          1 MOL1         0.0967
       7    C2      20.008915   19.212910   23.723778 C.3        1 MOL1        -0.1378
       8    H5      20.449812   20.181774   23.991164 H          1 MOL1         0.0993
       9    H6      20.834181   18.548811   23.437949 H          1 MOL1         0.0993
      10    C3      19.040339   19.398760   22.532263 C.3        1 MOL1        -0.1338
      11    H7      18.181365   19.999748   22.861724 H          1 MOL1         0.0993
      12    H8      18.629407   18.425589   22.232114 H          1 MOL1         0.0993
      13    C4      19.687029   20.100555   21.309807 C.3        1 MOL1        -0.1338
      14    H9      18.922483   20.226365   20.530784 H          1 MOL1         0.0993
      15    H10     19.989513   21.116286   21.599697 H          1 MOL1         0.0993
      16    C5      20.910299   19.371198   20.697477 C.3        1 MOL1        -0.1313
      17    H11     21.736439   19.341983   21.420489 H          1 MOL1         0.0993
      18    H12     21.278297   19.960709   19.846108 H          1 MOL1         0.0993
      19    C6      20.592305   17.939284   20.210160 C.3        1 MOL1        -0.2328
      20    H13     20.332318   17.278130   21.046147 H          1 MOL1         0.1004
      21    H14     21.462798   17.503430   19.703086 H          1 MOL1         0.1004
      22    H15     19.755793   17.940928   19.499400 H          1 MOL1         0.1004
      23    C7      20.700269   19.622868   26.760126 C.3        1 MOL1        -0.0781
      24    H16     21.304736   20.161639   26.027739 H          1 MOL1         0.0978
      25    H17     19.850846   20.238114   27.064748 H          1 MOL1         0.0978
      26    H18     21.311100   19.379915   27.632448 H          1 MOL1         0.0978
@<TRIPOS>BOND
    1     1     2    1
    2     1     3    1
    3     1     4    1
    4     4     5    1
    5     4     6    1
    6     4     7    1
    7     7     8    1
    8     7     9    1
    9     7    10    1
   10    10    11    1
   11    10    12    1
   12    10    13    1
   13    13    14    1
   14    13    15    1
   15    13    16    1
   16    16    17    1
   17    16    18    1
   18    16    19    1
   19    19    20    1
   20    19    21    1
   21    19    22    1
   22     1    23    1
   23    23    24    1
   24    23    25    1
   25    23    26    1
@<TRIPOS>SUBSTRUCTURE
       1 MOL1            1 RESIDUE      1      MOL     
@<SCITEGIC>MOL_PROPERTY
VM2 Rank
SciTegic.value.IntegerValue
63

@<SCITEGIC>MOL_PROPERTY
Conf_Id
SciTegic.value.IntegerValue
566

@<SCITEGIC>MOL_PROPERTY
Probability
SciTegic.value.DoubleValue
0.49

@<SCITEGIC>MOL_PROPERTY
Sum Probability
SciTegic.value.DoubleValue
88.64

@<SCITEGIC>MOL_PROPERTY
Delta G
SciTegic.value.DoubleValue
1.567

@<SCITEGIC>MOL_PROPERTY
G
SciTegic.value.DoubleValue
77.033

@<SCITEGIC>MOL_PROPERTY
E
SciTegic.value.DoubleValue
44.272

@<SCITEGIC>MOL_PROPERTY
-TS
SciTegic.value.DoubleValue
32.761

@<SCITEGIC>MOL_PROPERTY
U+W
SciTegic.value.DoubleValue
22.811

@<SCITEGIC>MOL_PROPERTY
U
SciTegic.value.DoubleValue
72.256

@<SCITEGIC>MOL_PROPERTY
W
SciTegic.value.DoubleValue
-49.446

@<SCITEGIC>MOL_PROPERTY
W(PB)
SciTegic.value.DoubleValue
-51.707

@<SCITEGIC>MOL_PROPERTY
W(SA)
SciTegic.value.DoubleValue
2.261

@<SCITEGIC>MOL_PROPERTY
Valence
SciTegic.value.DoubleValue
2.959

@<SCITEGIC>MOL_PROPERTY
Coulomb
SciTegic.value.DoubleValue
68.784

@<SCITEGIC>MOL_PROPERTY
VdW
SciTegic.value.DoubleValue
0.514

@<SCITEGIC>MOL_PROPERTY
VdW6
SciTegic.value.DoubleValue
-7.552

@<SCITEGIC>MOL_PROPERTY
VdW12
SciTegic.value.DoubleValue
8.066

@<SCITEGIC>MOL_PROPERTY
Bond
SciTegic.value.DoubleValue
0.240

@<SCITEGIC>MOL_PROPERTY
Angle
SciTegic.value.DoubleValue
1.124

@<SCITEGIC>MOL_PROPERTY
Pdih
SciTegic.value.DoubleValue
1.594

@<SCITEGIC>MOL_PROPERTY
Idih
SciTegic.value.DoubleValue
0.000

@<SCITEGIC>MOL_PROPERTY
Tether
SciTegic.value.DoubleValue
0.000

@<TRIPOS>MOLECULE
guest-s12_vm2.mol2 : vm2 ligand conformer 64
          26          25           1
SMALL
USER_CHARGES
 
@<TRIPOS>ATOM
       1    N1      20.562158   18.838133   26.306668 N.4        1 MOL1        -0.4857
       2    H1      21.430326   19.154387   26.767311 H          1 MOL1         0.3650
       3    H2      20.614445   17.807817   26.319116 H          1 MOL1         0.3650
       4    C1      20.532912   19.345648   24.874597 C.3        1 MOL1         0.0209
       5    H3      21.502936   19.109903   24.430889 H          1 MOL1         0.0967
       6    H4      20.428663   20.433088   24.904951 H          1 MOL1         0.0967
       7    C2      19.415508   18.735378   24.001295 C.3        1 MOL1        -0.1378
       8    H5      19.506094   17.641126   23.997734 H          1 MOL1         0.0993
       9    H6      18.438945   18.967601   24.445095 H          1 MOL1         0.0993
      10    C3      19.435288   19.263350   22.547017 C.3        1 MOL1        -0.1338
      11    H7      19.338882   20.357901   22.553532 H          1 MOL1         0.0993
      12    H8      18.547933   18.876021   22.029793 H          1 MOL1         0.0993
      13    C4      20.710969   18.854307   21.767040 C.3        1 MOL1        -0.1338
      14    H9      21.599574   19.223181   22.295862 H          1 MOL1         0.0993
      15    H10     20.796809   17.759141   21.745168 H          1 MOL1         0.0993
      16    C5      20.751007   19.403562   20.320099 C.3        1 MOL1        -0.1313
      17    H11     21.731517   19.169632   19.882166 H          1 MOL1         0.0993
      18    H12     20.676194   20.499903   20.336187 H          1 MOL1         0.0993
      19    C6      19.648212   18.819968   19.407396 C.3        1 MOL1        -0.2328
      20    H13     19.680770   17.722754   19.400222 H          1 MOL1         0.1004
      21    H14     19.782308   19.165839   18.374280 H          1 MOL1         0.1004
      22    H15     18.647925   19.132703   19.731180 H          1 MOL1         0.1004
      23    C7      19.351946   19.329653   27.092888 C.3        1 MOL1        -0.0781
      24    H16     18.440576   18.936309   26.638289 H          1 MOL1         0.0978
      25    H17     19.428945   18.977375   28.123935 H          1 MOL1         0.0978
      26    H18     19.333126   20.421545   27.076954 H          1 MOL1         0.0978
@<TRIPOS>BOND
    1     1     2    1
    2     1     3    1
    3     1     4    1
    4     4     5    1
    5     4     6    1
    6     4     7    1
    7     7     8    1
    8     7     9    1
    9     7    10    1
   10    10    11    1
   11    10    12    1
   12    10    13    1
   13    13    14    1
   14    13    15    1
   15    13    16    1
   16    16    17    1
   17    16    18    1
   18    16    19    1
   19    19    20    1
   20    19    21    1
   21    19    22    1
   22     1    23    1
   23    23    24    1
   24    23    25    1
   25    23    26    1
@<TRIPOS>SUBSTRUCTURE
       1 MOL1            1 RESIDUE      1      MOL     
@<SCITEGIC>MOL_PROPERTY
VM2 Rank
SciTegic.value.IntegerValue
64

@<SCITEGIC>MOL_PROPERTY
Conf_Id
SciTegic.value.IntegerValue
1820

@<SCITEGIC>MOL_PROPERTY
Probability
SciTegic.value.DoubleValue
0.49

@<SCITEGIC>MOL_PROPERTY
Sum Probability
SciTegic.value.DoubleValue
89.14

@<SCITEGIC>MOL_PROPERTY
Delta G
SciTegic.value.DoubleValue
1.569

@<SCITEGIC>MOL_PROPERTY
G
SciTegic.value.DoubleValue
77.035

@<SCITEGIC>MOL_PROPERTY
E
SciTegic.value.DoubleValue
44.525

@<SCITEGIC>MOL_PROPERTY
-TS
SciTegic.value.DoubleValue
32.510

@<SCITEGIC>MOL_PROPERTY
U+W
SciTegic.value.DoubleValue
23.063

@<SCITEGIC>MOL_PROPERTY
U
SciTegic.value.DoubleValue
72.298

@<SCITEGIC>MOL_PROPERTY
W
SciTegic.value.DoubleValue
-49.235

@<SCITEGIC>MOL_PROPERTY
W(PB)
SciTegic.value.DoubleValue
-51.503

@<SCITEGIC>MOL_PROPERTY
W(SA)
SciTegic.value.DoubleValue
2.268

@<SCITEGIC>MOL_PROPERTY
Valence
SciTegic.value.DoubleValue
2.869

@<SCITEGIC>MOL_PROPERTY
Coulomb
SciTegic.value.DoubleValue
68.765

@<SCITEGIC>MOL_PROPERTY
VdW
SciTegic.value.DoubleValue
0.664

@<SCITEGIC>MOL_PROPERTY
VdW6
SciTegic.value.DoubleValue
-7.141

@<SCITEGIC>MOL_PROPERTY
VdW12
SciTegic.value.DoubleValue
7.805

@<SCITEGIC>MOL_PROPERTY
Bond
SciTegic.value.DoubleValue
0.231

@<SCITEGIC>MOL_PROPERTY
Angle
SciTegic.value.DoubleValue
0.882

@<SCITEGIC>MOL_PROPERTY
Pdih
SciTegic.value.DoubleValue
1.757

@<SCITEGIC>MOL_PROPERTY
Idih
SciTegic.value.DoubleValue
0.000

@<SCITEGIC>MOL_PROPERTY
Tether
SciTegic.value.DoubleValue
0.000

@<TRIPOS>MOLECULE
guest-s12_vm2.mol2 : vm2 ligand conformer 65
          26          25           1
SMALL
USER_CHARGES
 
@<TRIPOS>ATOM
       1    N1      19.388029   18.718109   26.265087 N.4        1 MOL1        -0.4857
       2    H1      19.544317   17.698427   26.281223 H          1 MOL1         0.3650
       3    H2      18.443781   18.849067   26.661534 H          1 MOL1         0.3650
       4    C1      19.414299   19.231289   24.834981 C.3        1 MOL1         0.0209
       5    H3      19.294313   20.317120   24.864771 H          1 MOL1         0.0967
       6    H4      18.545398   18.807603   24.326157 H          1 MOL1         0.0967
       7    C2      20.690289   18.865612   24.046439 C.3        1 MOL1        -0.1378
       8    H5      21.566287   19.287127   24.555864 H          1 MOL1         0.0993
       9    H6      20.823098   17.775675   24.044344 H          1 MOL1         0.0993
      10    C3      20.666138   19.389138   22.590622 C.3        1 MOL1        -0.1338
      11    H7      21.647440   19.192771   22.139592 H          1 MOL1         0.0993
      12    H8      20.538751   20.480522   22.596074 H          1 MOL1         0.0993
      13    C4      19.557201   18.736448   21.726155 C.3        1 MOL1        -0.1338
      14    H9      19.696065   17.646699   21.706188 H          1 MOL1         0.0993
      15    H10     18.577591   18.914469   22.188768 H          1 MOL1         0.0993
      16    C5      19.508525   19.276597   20.276053 C.3        1 MOL1        -0.1313
      17    H11     19.358987   20.365304   20.289461 H          1 MOL1         0.0993
      18    H12     18.628648   18.852527   19.772180 H          1 MOL1         0.0993
      19    C6      20.767676   18.934362   19.447086 C.3        1 MOL1        -0.2328
      20    H13     21.658968   19.440363   19.837947 H          1 MOL1         0.1004
      21    H14     20.639233   19.253433   18.404672 H          1 MOL1         0.1004
      22    H15     20.957999   17.853268   19.445481 H          1 MOL1         0.1004
      23    C7      20.415843   19.438445   27.130577 C.3        1 MOL1        -0.0781
      24    H16     20.339638   19.070497   28.156195 H          1 MOL1         0.0978
      25    H17     21.417451   19.240692   26.743731 H          1 MOL1         0.0978
      26    H18     20.214651   20.511691   27.108191 H          1 MOL1         0.0978
@<TRIPOS>BOND
    1     1     2    1
    2     1     3    1
    3     1     4    1
    4     4     5    1
    5     4     6    1
    6     4     7    1
    7     7     8    1
    8     7     9    1
    9     7    10    1
   10    10    11    1
   11    10    12    1
   12    10    13    1
   13    13    14    1
   14    13    15    1
   15    13    16    1
   16    16    17    1
   17    16    18    1
   18    16    19    1
   19    19    20    1
   20    19    21    1
   21    19    22    1
   22     1    23    1
   23    23    24    1
   24    23    25    1
   25    23    26    1
@<TRIPOS>SUBSTRUCTURE
       1 MOL1            1 RESIDUE      1      MOL     
@<SCITEGIC>MOL_PROPERTY
VM2 Rank
SciTegic.value.IntegerValue
65

@<SCITEGIC>MOL_PROPERTY
Conf_Id
SciTegic.value.IntegerValue
546

@<SCITEGIC>MOL_PROPERTY
Probability
SciTegic.value.DoubleValue
0.47

@<SCITEGIC>MOL_PROPERTY
Sum Probability
SciTegic.value.DoubleValue
89.61

@<SCITEGIC>MOL_PROPERTY
Delta G
SciTegic.value.DoubleValue
1.590

@<SCITEGIC>MOL_PROPERTY
G
SciTegic.value.DoubleValue
77.056

@<SCITEGIC>MOL_PROPERTY
E
SciTegic.value.DoubleValue
44.546

@<SCITEGIC>MOL_PROPERTY
-TS
SciTegic.value.DoubleValue
32.510

@<SCITEGIC>MOL_PROPERTY
U+W
SciTegic.value.DoubleValue
23.084

@<SCITEGIC>MOL_PROPERTY
U
SciTegic.value.DoubleValue
72.298

@<SCITEGIC>MOL_PROPERTY
W
SciTegic.value.DoubleValue
-49.214

@<SCITEGIC>MOL_PROPERTY
W(PB)
SciTegic.value.DoubleValue
-51.498

@<SCITEGIC>MOL_PROPERTY
W(SA)
SciTegic.value.DoubleValue
2.284

@<SCITEGIC>MOL_PROPERTY
Valence
SciTegic.value.DoubleValue
2.869

@<SCITEGIC>MOL_PROPERTY
Coulomb
SciTegic.value.DoubleValue
68.765

@<SCITEGIC>MOL_PROPERTY
VdW
SciTegic.value.DoubleValue
0.664

@<SCITEGIC>MOL_PROPERTY
VdW6
SciTegic.value.DoubleValue
-7.141

@<SCITEGIC>MOL_PROPERTY
VdW12
SciTegic.value.DoubleValue
7.805

@<SCITEGIC>MOL_PROPERTY
Bond
SciTegic.value.DoubleValue
0.231

@<SCITEGIC>MOL_PROPERTY
Angle
SciTegic.value.DoubleValue
0.882

@<SCITEGIC>MOL_PROPERTY
Pdih
SciTegic.value.DoubleValue
1.756

@<SCITEGIC>MOL_PROPERTY
Idih
SciTegic.value.DoubleValue
0.000

@<SCITEGIC>MOL_PROPERTY
Tether
SciTegic.value.DoubleValue
0.000

@<TRIPOS>MOLECULE
guest-s12_vm2.mol2 : vm2 ligand conformer 66
          26          25           1
SMALL
USER_CHARGES
 
@<TRIPOS>ATOM
       1    N1      19.489123   18.661749   25.852965 N.4        1 MOL1        -0.4857
       2    H1      20.051870   17.929508   26.313306 H          1 MOL1         0.3650
       3    H2      18.634757   18.185653   25.524362 H          1 MOL1         0.3650
       4    C1      20.248926   19.243564   24.678077 C.3        1 MOL1         0.0209
       5    H3      21.149685   19.725710   25.066061 H          1 MOL1         0.0967
       6    H4      19.618324   20.009028   24.219507 H          1 MOL1         0.0967
       7    C2      20.638255   18.191095   23.622642 C.3        1 MOL1        -0.1378
       8    H5      21.241459   17.408153   24.101045 H          1 MOL1         0.0993
       9    H6      19.735407   17.695813   23.243208 H          1 MOL1         0.0993
      10    C3      21.444836   18.795153   22.446308 C.3        1 MOL1        -0.1338
      11    H7      21.706509   17.994460   21.741738 H          1 MOL1         0.0993
      12    H8      22.401626   19.175155   22.830373 H          1 MOL1         0.0993
      13    C4      20.726712   19.942291   21.685081 C.3        1 MOL1        -0.1338
      14    H9      20.616693   20.809095   22.350586 H          1 MOL1         0.0993
      15    H10     21.376919   20.280460   20.866499 H          1 MOL1         0.0993
      16    C5      19.337415   19.578439   21.101955 C.3        1 MOL1        -0.1313
      17    H11     18.924930   20.465264   20.600823 H          1 MOL1         0.0993
      18    H12     18.636115   19.338395   21.912320 H          1 MOL1         0.0993
      19    C6      19.383995   18.411750   20.089277 C.3        1 MOL1        -0.2328
      20    H13     19.687454   17.473371   20.569764 H          1 MOL1         0.1004
      21    H14     20.088420   18.624373   19.274721 H          1 MOL1         0.1004
      22    H15     18.394207   18.249694   19.643300 H          1 MOL1         0.1004
      23    C7      19.138738   19.765958   26.840694 C.3        1 MOL1        -0.0781
      24    H16     18.516372   20.511174   26.340437 H          1 MOL1         0.0978
      25    H17     18.592384   19.333815   27.682052 H          1 MOL1         0.0978
      26    H18     20.058991   20.232488   27.199074 H          1 MOL1         0.0978
@<TRIPOS>BOND
    1     1     2    1
    2     1     3    1
    3     1     4    1
    4     4     5    1
    5     4     6    1
    6     4     7    1
    7     7     8    1
    8     7     9    1
    9     7    10    1
   10    10    11    1
   11    10    12    1
   12    10    13    1
   13    13    14    1
   14    13    15    1
   15    13    16    1
   16    16    17    1
   17    16    18    1
   18    16    19    1
   19    19    20    1
   20    19    21    1
   21    19    22    1
   22     1    23    1
   23    23    24    1
   24    23    25    1
   25    23    26    1
@<TRIPOS>SUBSTRUCTURE
       1 MOL1            1 RESIDUE      1      MOL     
@<SCITEGIC>MOL_PROPERTY
VM2 Rank
SciTegic.value.IntegerValue
66

@<SCITEGIC>MOL_PROPERTY
Conf_Id
SciTegic.value.IntegerValue
1014

@<SCITEGIC>MOL_PROPERTY
Probability
SciTegic.value.DoubleValue
0.40

@<SCITEGIC>MOL_PROPERTY
Sum Probability
SciTegic.value.DoubleValue
90.01

@<SCITEGIC>MOL_PROPERTY
Delta G
SciTegic.value.DoubleValue
1.692

@<SCITEGIC>MOL_PROPERTY
G
SciTegic.value.DoubleValue
77.158

@<SCITEGIC>MOL_PROPERTY
E
SciTegic.value.DoubleValue
44.330

@<SCITEGIC>MOL_PROPERTY
-TS
SciTegic.value.DoubleValue
32.828

@<SCITEGIC>MOL_PROPERTY
U+W
SciTegic.value.DoubleValue
22.868

@<SCITEGIC>MOL_PROPERTY
U
SciTegic.value.DoubleValue
72.455

@<SCITEGIC>MOL_PROPERTY
W
SciTegic.value.DoubleValue
-49.587

@<SCITEGIC>MOL_PROPERTY
W(PB)
SciTegic.value.DoubleValue
-51.821

@<SCITEGIC>MOL_PROPERTY
W(SA)
SciTegic.value.DoubleValue
2.234

@<SCITEGIC>MOL_PROPERTY
Valence
SciTegic.value.DoubleValue
2.908

@<SCITEGIC>MOL_PROPERTY
Coulomb
SciTegic.value.DoubleValue
69.435

@<SCITEGIC>MOL_PROPERTY
VdW
SciTegic.value.DoubleValue
0.112

@<SCITEGIC>MOL_PROPERTY
VdW6
SciTegic.value.DoubleValue
-7.765

@<SCITEGIC>MOL_PROPERTY
VdW12
SciTegic.value.DoubleValue
7.877

@<SCITEGIC>MOL_PROPERTY
Bond
SciTegic.value.DoubleValue
0.233

@<SCITEGIC>MOL_PROPERTY
Angle
SciTegic.value.DoubleValue
1.170

@<SCITEGIC>MOL_PROPERTY
Pdih
SciTegic.value.DoubleValue
1.506

@<SCITEGIC>MOL_PROPERTY
Idih
SciTegic.value.DoubleValue
0.000

@<SCITEGIC>MOL_PROPERTY
Tether
SciTegic.value.DoubleValue
0.000

@<TRIPOS>MOLECULE
guest-s12_vm2.mol2 : vm2 ligand conformer 67
          26          25           1
SMALL
USER_CHARGES
 
@<TRIPOS>ATOM
       1    N1      20.279792   18.916471   25.647291 N.4        1 MOL1        -0.4857
       2    H1      20.937503   18.276875   25.176864 H          1 MOL1         0.3650
       3    H2      19.699461   18.318455   26.255702 H          1 MOL1         0.3650
       4    C1      19.410578   19.613151   24.618938 C.3        1 MOL1         0.0209
       5    H3      20.056871   20.241996   24.001855 H          1 MOL1         0.0967
       6    H4      18.716595   20.263563   25.157353 H          1 MOL1         0.0967
       7    C2      18.614612   18.645811   23.719149 C.3        1 MOL1        -0.1378
       8    H5      17.939333   18.046629   24.344210 H          1 MOL1         0.0993
       9    H6      17.965873   19.232574   23.056352 H          1 MOL1         0.0993
      10    C3      19.503647   17.696664   22.872905 C.3        1 MOL1        -0.1338
      11    H7      18.855913   17.085777   22.229037 H          1 MOL1         0.0993
      12    H8      20.012639   16.986795   23.538662 H          1 MOL1         0.0993
      13    C4      20.565364   18.407407   21.993787 C.3        1 MOL1        -0.1338
      14    H9      21.281809   18.945834   22.628483 H          1 MOL1         0.0993
      15    H10     21.147538   17.639718   21.465468 H          1 MOL1         0.0993
      16    C5      19.957359   19.379346   20.955077 C.3        1 MOL1        -0.1313
      17    H11     19.427408   20.195387   21.464181 H          1 MOL1         0.0993
      18    H12     19.214149   18.850147   20.342426 H          1 MOL1         0.0993
      19    C6      21.041611   19.982718   20.036904 C.3        1 MOL1        -0.2328
      20    H13     21.783634   20.544745   20.618895 H          1 MOL1         0.1004
      21    H14     20.593619   20.670883   19.308390 H          1 MOL1         0.1004
      22    H15     21.568266   19.197905   19.478448 H          1 MOL1         0.1004
      23    C7      21.035037   19.948431   26.472948 C.3        1 MOL1        -0.0781
      24    H16     20.317480   20.593675   26.984496 H          1 MOL1         0.0978
      25    H17     21.657316   19.433278   27.208124 H          1 MOL1         0.0978
      26    H18     21.664768   20.546942   25.811035 H          1 MOL1         0.0978
@<TRIPOS>BOND
    1     1     2    1
    2     1     3    1
    3     1     4    1
    4     4     5    1
    5     4     6    1
    6     4     7    1
    7     7     8    1
    8     7     9    1
    9     7    10    1
   10    10    11    1
   11    10    12    1
   12    10    13    1
   13    13    14    1
   14    13    15    1
   15    13    16    1
   16    16    17    1
   17    16    18    1
   18    16    19    1
   19    19    20    1
   20    19    21    1
   21    19    22    1
   22     1    23    1
   23    23    24    1
   24    23    25    1
   25    23    26    1
@<TRIPOS>SUBSTRUCTURE
       1 MOL1            1 RESIDUE      1      MOL     
@<SCITEGIC>MOL_PROPERTY
VM2 Rank
SciTegic.value.IntegerValue
67

@<SCITEGIC>MOL_PROPERTY
Conf_Id
SciTegic.value.IntegerValue
246

@<SCITEGIC>MOL_PROPERTY
Probability
SciTegic.value.DoubleValue
0.38

@<SCITEGIC>MOL_PROPERTY
Sum Probability
SciTegic.value.DoubleValue
90.39

@<SCITEGIC>MOL_PROPERTY
Delta G
SciTegic.value.DoubleValue
1.715

@<SCITEGIC>MOL_PROPERTY
G
SciTegic.value.DoubleValue
77.181

@<SCITEGIC>MOL_PROPERTY
E
SciTegic.value.DoubleValue
44.473

@<SCITEGIC>MOL_PROPERTY
-TS
SciTegic.value.DoubleValue
32.708

@<SCITEGIC>MOL_PROPERTY
U+W
SciTegic.value.DoubleValue
23.011

@<SCITEGIC>MOL_PROPERTY
U
SciTegic.value.DoubleValue
72.452

@<SCITEGIC>MOL_PROPERTY
W
SciTegic.value.DoubleValue
-49.441

@<SCITEGIC>MOL_PROPERTY
W(PB)
SciTegic.value.DoubleValue
-51.701

@<SCITEGIC>MOL_PROPERTY
W(SA)
SciTegic.value.DoubleValue
2.259

@<SCITEGIC>MOL_PROPERTY
Valence
SciTegic.value.DoubleValue
2.611

@<SCITEGIC>MOL_PROPERTY
Coulomb
SciTegic.value.DoubleValue
69.807

@<SCITEGIC>MOL_PROPERTY
VdW
SciTegic.value.DoubleValue
0.035

@<SCITEGIC>MOL_PROPERTY
VdW6
SciTegic.value.DoubleValue
-7.730

@<SCITEGIC>MOL_PROPERTY
VdW12
SciTegic.value.DoubleValue
7.765

@<SCITEGIC>MOL_PROPERTY
Bond
SciTegic.value.DoubleValue
0.213

@<SCITEGIC>MOL_PROPERTY
Angle
SciTegic.value.DoubleValue
0.953

@<SCITEGIC>MOL_PROPERTY
Pdih
SciTegic.value.DoubleValue
1.445

@<SCITEGIC>MOL_PROPERTY
Idih
SciTegic.value.DoubleValue
0.000

@<SCITEGIC>MOL_PROPERTY
Tether
SciTegic.value.DoubleValue
0.000

@<TRIPOS>MOLECULE
guest-s12_vm2.mol2 : vm2 ligand conformer 68
          26          25           1
SMALL
USER_CHARGES
 
@<TRIPOS>ATOM
       1    N1      19.771620   18.827120   25.922220 N.4        1 MOL1        -0.4857
       2    H1      20.298684   17.955859   26.088897 H          1 MOL1         0.3650
       3    H2      18.863406   18.530680   25.534513 H          1 MOL1         0.3650
       4    C1      20.506658   19.697991   24.921533 C.3        1 MOL1         0.0209
       5    H3      21.458398   19.987048   25.374572 H          1 MOL1         0.0967
       6    H4      19.915479   20.603443   24.763131 H          1 MOL1         0.0967
       7    C2      20.774401   19.009912   23.568378 C.3        1 MOL1        -0.1378
       8    H5      21.408811   19.676248   22.970709 H          1 MOL1         0.0993
       9    H6      21.350647   18.089691   23.732089 H          1 MOL1         0.0993
      10    C3      19.472249   18.691773   22.791236 C.3        1 MOL1        -0.1338
      11    H7      18.910411   19.618538   22.613952 H          1 MOL1         0.0993
      12    H8      18.822594   18.059210   23.410216 H          1 MOL1         0.0993
      13    C4      19.716162   17.955974   21.447883 C.3        1 MOL1        -0.1338
      14    H9      20.183286   16.982890   21.653188 H          1 MOL1         0.0993
      15    H10     18.743583   17.730440   20.989097 H          1 MOL1         0.0993
      16    C5      20.587781   18.720861   20.418903 C.3        1 MOL1        -0.1313
      17    H11     20.682762   18.103471   19.514698 H          1 MOL1         0.0993
      18    H12     21.608755   18.846132   20.803459 H          1 MOL1         0.0993
      19    C6      20.006750   20.097038   20.022011 C.3        1 MOL1        -0.2328
      20    H13     20.608164   20.552985   19.224973 H          1 MOL1         0.1004
      21    H14     20.002811   20.792119   20.870800 H          1 MOL1         0.1004
      22    H15     18.977899   19.999274   19.652085 H          1 MOL1         0.1004
      23    C7      19.572380   19.589331   27.224835 C.3        1 MOL1        -0.0781
      24    H16     19.042282   18.951533   27.935700 H          1 MOL1         0.0978
      25    H17     20.547555   19.864735   27.632413 H          1 MOL1         0.0978
      26    H18     18.985843   20.489451   27.028123 H          1 MOL1         0.0978
@<TRIPOS>BOND
    1     1     2    1
    2     1     3    1
    3     1     4    1
    4     4     5    1
    5     4     6    1
    6     4     7    1
    7     7     8    1
    8     7     9    1
    9     7    10    1
   10    10    11    1
   11    10    12    1
   12    10    13    1
   13    13    14    1
   14    13    15    1
   15    13    16    1
   16    16    17    1
   17    16    18    1
   18    16    19    1
   19    19    20    1
   20    19    21    1
   21    19    22    1
   22     1    23    1
   23    23    24    1
   24    23    25    1
   25    23    26    1
@<TRIPOS>SUBSTRUCTURE
       1 MOL1            1 RESIDUE      1      MOL     
@<SCITEGIC>MOL_PROPERTY
VM2 Rank
SciTegic.value.IntegerValue
68

@<SCITEGIC>MOL_PROPERTY
Conf_Id
SciTegic.value.IntegerValue
1598

@<SCITEGIC>MOL_PROPERTY
Probability
SciTegic.value.DoubleValue
0.38

@<SCITEGIC>MOL_PROPERTY
Sum Probability
SciTegic.value.DoubleValue
90.77

@<SCITEGIC>MOL_PROPERTY
Delta G
SciTegic.value.DoubleValue
1.728

@<SCITEGIC>MOL_PROPERTY
G
SciTegic.value.DoubleValue
77.194

@<SCITEGIC>MOL_PROPERTY
E
SciTegic.value.DoubleValue
44.524

@<SCITEGIC>MOL_PROPERTY
-TS
SciTegic.value.DoubleValue
32.670

@<SCITEGIC>MOL_PROPERTY
U+W
SciTegic.value.DoubleValue
23.062

@<SCITEGIC>MOL_PROPERTY
U
SciTegic.value.DoubleValue
72.391

@<SCITEGIC>MOL_PROPERTY
W
SciTegic.value.DoubleValue
-49.329

@<SCITEGIC>MOL_PROPERTY
W(PB)
SciTegic.value.DoubleValue
-51.594

@<SCITEGIC>MOL_PROPERTY
W(SA)
SciTegic.value.DoubleValue
2.265

@<SCITEGIC>MOL_PROPERTY
Valence
SciTegic.value.DoubleValue
2.830

@<SCITEGIC>MOL_PROPERTY
Coulomb
SciTegic.value.DoubleValue
69.222

@<SCITEGIC>MOL_PROPERTY
VdW
SciTegic.value.DoubleValue
0.340

@<SCITEGIC>MOL_PROPERTY
VdW6
SciTegic.value.DoubleValue
-7.379

@<SCITEGIC>MOL_PROPERTY
VdW12
SciTegic.value.DoubleValue
7.718

@<SCITEGIC>MOL_PROPERTY
Bond
SciTegic.value.DoubleValue
0.228

@<SCITEGIC>MOL_PROPERTY
Angle
SciTegic.value.DoubleValue
1.104

@<SCITEGIC>MOL_PROPERTY
Pdih
SciTegic.value.DoubleValue
1.497

@<SCITEGIC>MOL_PROPERTY
Idih
SciTegic.value.DoubleValue
0.000

@<SCITEGIC>MOL_PROPERTY
Tether
SciTegic.value.DoubleValue
0.000

@<TRIPOS>MOLECULE
guest-s12_vm2.mol2 : vm2 ligand conformer 69
          26          25           1
SMALL
USER_CHARGES
 
@<TRIPOS>ATOM
       1    N1      19.695407   18.855334   25.626442 N.4        1 MOL1        -0.4857
       2    H1      20.342832   18.385766   26.278297 H          1 MOL1         0.3650
       3    H2      19.218668   18.097048   25.115864 H          1 MOL1         0.3650
       4    C1      20.471553   19.724172   24.656331 C.3        1 MOL1         0.0209
       5    H3      20.976609   20.500105   25.237182 H          1 MOL1         0.0967
       6    H4      19.753995   20.210249   23.990919 H          1 MOL1         0.0967
       7    C2      21.511336   18.948935   23.821593 C.3        1 MOL1        -0.1378
       8    H5      22.069451   19.661991   23.201503 H          1 MOL1         0.0993
       9    H6      22.250511   18.497834   24.496759 H          1 MOL1         0.0993
      10    C3      20.899265   17.842632   22.922226 C.3        1 MOL1        -0.1338
      11    H7      20.502922   17.037934   23.555940 H          1 MOL1         0.0993
      12    H8      21.702748   17.383741   22.329653 H          1 MOL1         0.0993
      13    C4      19.777529   18.324761   21.965928 C.3        1 MOL1        -0.1338
      14    H9      19.405274   17.457166   21.403698 H          1 MOL1         0.0993
      15    H10     18.922569   18.698445   22.545097 H          1 MOL1         0.0993
      16    C5      20.242226   19.409271   20.965355 C.3        1 MOL1        -0.1313
      17    H11     21.119792   19.049962   20.409903 H          1 MOL1         0.0993
      18    H12     20.554937   20.313468   21.504426 H          1 MOL1         0.0993
      19    C6      19.123380   19.782091   19.969420 C.3        1 MOL1        -0.2328
      20    H13     18.810889   18.909514   19.381092 H          1 MOL1         0.1004
      21    H14     19.468966   20.553574   19.269146 H          1 MOL1         0.1004
      22    H15     18.242307   20.173945   20.494155 H          1 MOL1         0.1004
      23    C7      18.687304   19.702804   26.389707 C.3        1 MOL1        -0.0781
      24    H16     18.135132   19.064781   27.083340 H          1 MOL1         0.0978
      25    H17     19.218413   20.478701   26.945421 H          1 MOL1         0.0978
      26    H18     17.995290   20.163016   25.681029 H          1 MOL1         0.0978
@<TRIPOS>BOND
    1     1     2    1
    2     1     3    1
    3     1     4    1
    4     4     5    1
    5     4     6    1
    6     4     7    1
    7     7     8    1
    8     7     9    1
    9     7    10    1
   10    10    11    1
   11    10    12    1
   12    10    13    1
   13    13    14    1
   14    13    15    1
   15    13    16    1
   16    16    17    1
   17    16    18    1
   18    16    19    1
   19    19    20    1
   20    19    21    1
   21    19    22    1
   22     1    23    1
   23    23    24    1
   24    23    25    1
   25    23    26    1
@<TRIPOS>SUBSTRUCTURE
       1 MOL1            1 RESIDUE      1      MOL     
@<SCITEGIC>MOL_PROPERTY
VM2 Rank
SciTegic.value.IntegerValue
69

@<SCITEGIC>MOL_PROPERTY
Conf_Id
SciTegic.value.IntegerValue
411

@<SCITEGIC>MOL_PROPERTY
Probability
SciTegic.value.DoubleValue
0.37

@<SCITEGIC>MOL_PROPERTY
Sum Probability
SciTegic.value.DoubleValue
91.14

@<SCITEGIC>MOL_PROPERTY
Delta G
SciTegic.value.DoubleValue
1.735

@<SCITEGIC>MOL_PROPERTY
G
SciTegic.value.DoubleValue
77.201

@<SCITEGIC>MOL_PROPERTY
E
SciTegic.value.DoubleValue
44.493

@<SCITEGIC>MOL_PROPERTY
-TS
SciTegic.value.DoubleValue
32.709

@<SCITEGIC>MOL_PROPERTY
U+W
SciTegic.value.DoubleValue
23.031

@<SCITEGIC>MOL_PROPERTY
U
SciTegic.value.DoubleValue
72.453

@<SCITEGIC>MOL_PROPERTY
W
SciTegic.value.DoubleValue
-49.422

@<SCITEGIC>MOL_PROPERTY
W(PB)
SciTegic.value.DoubleValue
-51.690

@<SCITEGIC>MOL_PROPERTY
W(SA)
SciTegic.value.DoubleValue
2.268

@<SCITEGIC>MOL_PROPERTY
Valence
SciTegic.value.DoubleValue
2.611

@<SCITEGIC>MOL_PROPERTY
Coulomb
SciTegic.value.DoubleValue
69.807

@<SCITEGIC>MOL_PROPERTY
VdW
SciTegic.value.DoubleValue
0.035

@<SCITEGIC>MOL_PROPERTY
VdW6
SciTegic.value.DoubleValue
-7.730

@<SCITEGIC>MOL_PROPERTY
VdW12
SciTegic.value.DoubleValue
7.765

@<SCITEGIC>MOL_PROPERTY
Bond
SciTegic.value.DoubleValue
0.213

@<SCITEGIC>MOL_PROPERTY
Angle
SciTegic.value.DoubleValue
0.953

@<SCITEGIC>MOL_PROPERTY
Pdih
SciTegic.value.DoubleValue
1.445

@<SCITEGIC>MOL_PROPERTY
Idih
SciTegic.value.DoubleValue
0.000

@<SCITEGIC>MOL_PROPERTY
Tether
SciTegic.value.DoubleValue
0.000

@<TRIPOS>MOLECULE
guest-s12_vm2.mol2 : vm2 ligand conformer 70
          26          25           1
SMALL
USER_CHARGES
 
@<TRIPOS>ATOM
       1    N1      20.503858   18.765707   25.888811 N.4        1 MOL1        -0.4857
       2    H1      21.457829   18.475014   25.624187 H          1 MOL1         0.3650
       3    H2      20.070373   17.931290   26.313802 H          1 MOL1         0.3650
       4    C1      19.726023   19.190013   24.659538 C.3        1 MOL1         0.0209
       5    H3      20.218970   20.070650   24.240774 H          1 MOL1         0.0967
       6    H4      18.721379   19.476863   24.980113 H          1 MOL1         0.0967
       7    C2      19.632790   18.088137   23.586976 C.3        1 MOL1        -0.1378
       8    H5      20.641542   17.788721   23.275240 H          1 MOL1         0.0993
       9    H6      19.168680   17.195829   24.027556 H          1 MOL1         0.0993
      10    C3      18.804965   18.524756   22.352761 C.3        1 MOL1        -0.1338
      11    H7      17.766552   18.700360   22.666157 H          1 MOL1         0.0993
      12    H8      18.760848   17.692732   21.637363 H          1 MOL1         0.0993
      13    C4      19.327395   19.798973   21.635453 C.3        1 MOL1        -0.1338
      14    H9      18.681157   20.004266   20.770910 H          1 MOL1         0.0993
      15    H10     19.212662   20.665323   22.300755 H          1 MOL1         0.0993
      16    C5      20.798961   19.728231   21.153729 C.3        1 MOL1        -0.1313
      17    H11     21.475815   19.629603   22.012959 H          1 MOL1         0.0993
      18    H12     21.057298   20.683715   20.676183 H          1 MOL1         0.0993
      19    C6      21.060781   18.583399   20.148911 C.3        1 MOL1        -0.2328
      20    H13     20.920931   17.599669   20.613914 H          1 MOL1         0.1004
      21    H14     22.091604   18.628425   19.774462 H          1 MOL1         0.1004
      22    H15     20.386649   18.654498   19.285535 H          1 MOL1         0.1004
      23    C7      20.553228   19.910783   26.890821 C.3        1 MOL1        -0.0781
      24    H16     21.045140   20.770270   26.430118 H          1 MOL1         0.0978
      25    H17     19.534756   20.178555   27.180590 H          1 MOL1         0.0978
      26    H18     21.115555   19.592182   27.771397 H          1 MOL1         0.0978
@<TRIPOS>BOND
    1     1     2    1
    2     1     3    1
    3     1     4    1
    4     4     5    1
    5     4     6    1
    6     4     7    1
    7     7     8    1
    8     7     9    1
    9     7    10    1
   10    10    11    1
   11    10    12    1
   12    10    13    1
   13    13    14    1
   14    13    15    1
   15    13    16    1
   16    16    17    1
   17    16    18    1
   18    16    19    1
   19    19    20    1
   20    19    21    1
   21    19    22    1
   22     1    23    1
   23    23    24    1
   24    23    25    1
   25    23    26    1
@<TRIPOS>SUBSTRUCTURE
       1 MOL1            1 RESIDUE      1      MOL     
@<SCITEGIC>MOL_PROPERTY
VM2 Rank
SciTegic.value.IntegerValue
70

@<SCITEGIC>MOL_PROPERTY
Conf_Id
SciTegic.value.IntegerValue
382

@<SCITEGIC>MOL_PROPERTY
Probability
SciTegic.value.DoubleValue
0.36

@<SCITEGIC>MOL_PROPERTY
Sum Probability
SciTegic.value.DoubleValue
91.50

@<SCITEGIC>MOL_PROPERTY
Delta G
SciTegic.value.DoubleValue
1.758

@<SCITEGIC>MOL_PROPERTY
G
SciTegic.value.DoubleValue
77.224

@<SCITEGIC>MOL_PROPERTY
E
SciTegic.value.DoubleValue
44.395

@<SCITEGIC>MOL_PROPERTY
-TS
SciTegic.value.DoubleValue
32.829

@<SCITEGIC>MOL_PROPERTY
U+W
SciTegic.value.DoubleValue
22.933

@<SCITEGIC>MOL_PROPERTY
U
SciTegic.value.DoubleValue
72.455

@<SCITEGIC>MOL_PROPERTY
W
SciTegic.value.DoubleValue
-49.521

@<SCITEGIC>MOL_PROPERTY
W(PB)
SciTegic.value.DoubleValue
-51.800

@<SCITEGIC>MOL_PROPERTY
W(SA)
SciTegic.value.DoubleValue
2.278

@<SCITEGIC>MOL_PROPERTY
Valence
SciTegic.value.DoubleValue
2.908

@<SCITEGIC>MOL_PROPERTY
Coulomb
SciTegic.value.DoubleValue
69.435

@<SCITEGIC>MOL_PROPERTY
VdW
SciTegic.value.DoubleValue
0.111

@<SCITEGIC>MOL_PROPERTY
VdW6
SciTegic.value.DoubleValue
-7.765

@<SCITEGIC>MOL_PROPERTY
VdW12
SciTegic.value.DoubleValue
7.877

@<SCITEGIC>MOL_PROPERTY
Bond
SciTegic.value.DoubleValue
0.233

@<SCITEGIC>MOL_PROPERTY
Angle
SciTegic.value.DoubleValue
1.170

@<SCITEGIC>MOL_PROPERTY
Pdih
SciTegic.value.DoubleValue
1.506

@<SCITEGIC>MOL_PROPERTY
Idih
SciTegic.value.DoubleValue
0.000

@<SCITEGIC>MOL_PROPERTY
Tether
SciTegic.value.DoubleValue
0.000

@<TRIPOS>MOLECULE
guest-s12_vm2.mol2 : vm2 ligand conformer 71
          26          25           1
SMALL
USER_CHARGES
 
@<TRIPOS>ATOM
       1    N1      20.190301   18.870616   25.937055 N.4        1 MOL1        -0.4857
       2    H1      21.164918   18.769858   25.616090 H          1 MOL1         0.3650
       3    H2      19.843017   17.908485   26.072587 H          1 MOL1         0.3650
       4    C1      19.364058   19.579412   24.881117 C.3        1 MOL1         0.0209
       5    H3      19.766453   20.588039   24.757918 H          1 MOL1         0.0967
       6    H4      18.343943   19.663706   25.264352 H          1 MOL1         0.0967
       7    C2      19.338527   18.860909   23.517565 C.3        1 MOL1        -0.1378
       8    H5      18.953421   17.840840   23.647248 H          1 MOL1         0.0993
       9    H6      18.624227   19.387175   22.872192 H          1 MOL1         0.0993
      10    C3      20.729323   18.822472   22.835674 C.3        1 MOL1        -0.1338
      11    H7      21.450111   18.332314   23.503155 H          1 MOL1         0.0993
      12    H8      21.099930   19.846087   22.691304 H          1 MOL1         0.0993
      13    C4      20.736157   18.061961   21.483979 C.3        1 MOL1        -0.1338
      14    H9      21.763946   18.044245   21.095911 H          1 MOL1         0.0993
      15    H10     20.465613   17.012244   21.663269 H          1 MOL1         0.0993
      16    C5      19.800110   18.638952   20.391059 C.3        1 MOL1        -0.1313
      17    H11     18.750855   18.549202   20.702468 H          1 MOL1         0.0993
      18    H12     19.897272   18.021692   19.486997 H          1 MOL1         0.0993
      19    C6      20.112522   20.107899   20.025578 C.3        1 MOL1        -0.2328
      20    H13     19.487384   20.436393   19.185251 H          1 MOL1         0.1004
      21    H14     21.162762   20.226053   19.728977 H          1 MOL1         0.1004
      22    H15     19.914534   20.782884   20.867474 H          1 MOL1         0.1004
      23    C7      20.137002   19.647779   27.244974 C.3        1 MOL1        -0.0781
      24    H16     19.099941   19.714071   27.581194 H          1 MOL1         0.0978
      25    H17     20.735591   19.127114   27.995786 H          1 MOL1         0.0978
      26    H18     20.538555   20.650582   27.083485 H          1 MOL1         0.0978
@<TRIPOS>BOND
    1     1     2    1
    2     1     3    1
    3     1     4    1
    4     4     5    1
    5     4     6    1
    6     4     7    1
    7     7     8    1
    8     7     9    1
    9     7    10    1
   10    10    11    1
   11    10    12    1
   12    10    13    1
   13    13    14    1
   14    13    15    1
   15    13    16    1
   16    16    17    1
   17    16    18    1
   18    16    19    1
   19    19    20    1
   20    19    21    1
   21    19    22    1
   22     1    23    1
   23    23    24    1
   24    23    25    1
   25    23    26    1
@<TRIPOS>SUBSTRUCTURE
       1 MOL1            1 RESIDUE      1      MOL     
@<SCITEGIC>MOL_PROPERTY
VM2 Rank
SciTegic.value.IntegerValue
71

@<SCITEGIC>MOL_PROPERTY
Conf_Id
SciTegic.value.IntegerValue
735

@<SCITEGIC>MOL_PROPERTY
Probability
SciTegic.value.DoubleValue
0.34

@<SCITEGIC>MOL_PROPERTY
Sum Probability
SciTegic.value.DoubleValue
91.84

@<SCITEGIC>MOL_PROPERTY
Delta G
SciTegic.value.DoubleValue
1.797

@<SCITEGIC>MOL_PROPERTY
G
SciTegic.value.DoubleValue
77.263

@<SCITEGIC>MOL_PROPERTY
E
SciTegic.value.DoubleValue
44.593

@<SCITEGIC>MOL_PROPERTY
-TS
SciTegic.value.DoubleValue
32.670

@<SCITEGIC>MOL_PROPERTY
U+W
SciTegic.value.DoubleValue
23.131

@<SCITEGIC>MOL_PROPERTY
U
SciTegic.value.DoubleValue
72.391

@<SCITEGIC>MOL_PROPERTY
W
SciTegic.value.DoubleValue
-49.260

@<SCITEGIC>MOL_PROPERTY
W(PB)
SciTegic.value.DoubleValue
-51.510

@<SCITEGIC>MOL_PROPERTY
W(SA)
SciTegic.value.DoubleValue
2.250

@<SCITEGIC>MOL_PROPERTY
Valence
SciTegic.value.DoubleValue
2.830

@<SCITEGIC>MOL_PROPERTY
Coulomb
SciTegic.value.DoubleValue
69.222

@<SCITEGIC>MOL_PROPERTY
VdW
SciTegic.value.DoubleValue
0.339

@<SCITEGIC>MOL_PROPERTY
VdW6
SciTegic.value.DoubleValue
-7.379

@<SCITEGIC>MOL_PROPERTY
VdW12
SciTegic.value.DoubleValue
7.718

@<SCITEGIC>MOL_PROPERTY
Bond
SciTegic.value.DoubleValue
0.228

@<SCITEGIC>MOL_PROPERTY
Angle
SciTegic.value.DoubleValue
1.104

@<SCITEGIC>MOL_PROPERTY
Pdih
SciTegic.value.DoubleValue
1.497

@<SCITEGIC>MOL_PROPERTY
Idih
SciTegic.value.DoubleValue
0.000

@<SCITEGIC>MOL_PROPERTY
Tether
SciTegic.value.DoubleValue
0.000

@<TRIPOS>MOLECULE
guest-s12_vm2.mol2 : vm2 ligand conformer 72
          26          25           1
SMALL
USER_CHARGES
 
@<TRIPOS>ATOM
       1    N1      20.505502   19.403910   25.618733 N.4        1 MOL1        -0.4857
       2    H1      20.948925   19.967423   24.877823 H          1 MOL1         0.3650
       3    H2      21.255695   18.806203   25.998954 H          1 MOL1         0.3650
       4    C1      19.404425   18.545752   25.027250 C.3        1 MOL1         0.0209
       5    H3      18.629926   19.211708   24.639766 H          1 MOL1         0.0967
       6    H4      18.970108   17.958005   25.839957 H          1 MOL1         0.0967
       7    C2      19.884701   17.596891   23.909473 C.3        1 MOL1        -0.1378
       8    H5      20.619454   16.895318   24.326292 H          1 MOL1         0.0993
       9    H6      19.034528   16.986527   23.577080 H          1 MOL1         0.0993
      10    C3      20.503922   18.318935   22.685827 C.3        1 MOL1        -0.1338
      11    H7      20.835203   17.553671   21.971964 H          1 MOL1         0.0993
      12    H8      21.407553   18.863595   22.989980 H          1 MOL1         0.0993
      13    C4      19.517846   19.288600   21.985582 C.3        1 MOL1        -0.1338
      14    H9      18.626641   18.736558   21.656610 H          1 MOL1         0.0993
      15    H10     19.167094   20.040410   22.704756 H          1 MOL1         0.0993
      16    C5      20.138443   20.032855   20.778227 C.3        1 MOL1        -0.1313
      17    H11     21.023628   20.597065   21.103597 H          1 MOL1         0.0993
      18    H12     19.416412   20.777876   20.415565 H          1 MOL1         0.0993
      19    C6      20.518446   19.099118   19.606303 C.3        1 MOL1        -0.2328
      20    H13     20.859927   19.685621   18.743557 H          1 MOL1         0.1004
      21    H14     19.657592   18.499131   19.283915 H          1 MOL1         0.1004
      22    H15     21.331109   18.415531   19.881078 H          1 MOL1         0.1004
      23    C7      19.934715   20.303940   26.705605 C.3        1 MOL1        -0.0781
      24    H16     19.166262   20.947675   26.272022 H          1 MOL1         0.0978
      25    H17     19.498094   19.684404   27.492024 H          1 MOL1         0.0978
      26    H18     20.737597   20.916566   27.121746 H          1 MOL1         0.0978
@<TRIPOS>BOND
    1     1     2    1
    2     1     3    1
    3     1     4    1
    4     4     5    1
    5     4     6    1
    6     4     7    1
    7     7     8    1
    8     7     9    1
    9     7    10    1
   10    10    11    1
   11    10    12    1
   12    10    13    1
   13    13    14    1
   14    13    15    1
   15    13    16    1
   16    16    17    1
   17    16    18    1
   18    16    19    1
   19    19    20    1
   20    19    21    1
   21    19    22    1
   22     1    23    1
   23    23    24    1
   24    23    25    1
   25    23    26    1
@<TRIPOS>SUBSTRUCTURE
       1 MOL1            1 RESIDUE      1      MOL     
@<SCITEGIC>MOL_PROPERTY
VM2 Rank
SciTegic.value.IntegerValue
72

@<SCITEGIC>MOL_PROPERTY
Conf_Id
SciTegic.value.IntegerValue
1201

@<SCITEGIC>MOL_PROPERTY
Probability
SciTegic.value.DoubleValue
0.32

@<SCITEGIC>MOL_PROPERTY
Sum Probability
SciTegic.value.DoubleValue
92.15

@<SCITEGIC>MOL_PROPERTY
Delta G
SciTegic.value.DoubleValue
1.829

@<SCITEGIC>MOL_PROPERTY
G
SciTegic.value.DoubleValue
77.295

@<SCITEGIC>MOL_PROPERTY
E
SciTegic.value.DoubleValue
44.765

@<SCITEGIC>MOL_PROPERTY
-TS
SciTegic.value.DoubleValue
32.530

@<SCITEGIC>MOL_PROPERTY
U+W
SciTegic.value.DoubleValue
23.304

@<SCITEGIC>MOL_PROPERTY
U
SciTegic.value.DoubleValue
72.579

@<SCITEGIC>MOL_PROPERTY
W
SciTegic.value.DoubleValue
-49.275

@<SCITEGIC>MOL_PROPERTY
W(PB)
SciTegic.value.DoubleValue
-51.539

@<SCITEGIC>MOL_PROPERTY
W(SA)
SciTegic.value.DoubleValue
2.264

@<SCITEGIC>MOL_PROPERTY
Valence
SciTegic.value.DoubleValue
2.677

@<SCITEGIC>MOL_PROPERTY
Coulomb
SciTegic.value.DoubleValue
69.622

@<SCITEGIC>MOL_PROPERTY
VdW
SciTegic.value.DoubleValue
0.280

@<SCITEGIC>MOL_PROPERTY
VdW6
SciTegic.value.DoubleValue
-7.329

@<SCITEGIC>MOL_PROPERTY
VdW12
SciTegic.value.DoubleValue
7.608

@<SCITEGIC>MOL_PROPERTY
Bond
SciTegic.value.DoubleValue
0.212

@<SCITEGIC>MOL_PROPERTY
Angle
SciTegic.value.DoubleValue
0.911

@<SCITEGIC>MOL_PROPERTY
Pdih
SciTegic.value.DoubleValue
1.554

@<SCITEGIC>MOL_PROPERTY
Idih
SciTegic.value.DoubleValue
0.000

@<SCITEGIC>MOL_PROPERTY
Tether
SciTegic.value.DoubleValue
0.000

@<TRIPOS>MOLECULE
guest-s12_vm2.mol2 : vm2 ligand conformer 73
          26          25           1
SMALL
USER_CHARGES
 
@<TRIPOS>ATOM
       1    N1      19.502586   18.731155   25.755535 N.4        1 MOL1        -0.4857
       2    H1      19.517554   18.421049   26.740115 H          1 MOL1         0.3650
       3    H2      19.085623   17.945912   25.233888 H          1 MOL1         0.3650
       4    C1      20.925458   18.978054   25.278268 C.3        1 MOL1         0.0209
       5    H3      21.511684   18.089655   25.526613 H          1 MOL1         0.0967
       6    H4      21.326381   19.816645   25.853153 H          1 MOL1         0.0967
       7    C2      21.071611   19.270195   23.768998 C.3        1 MOL1        -0.1378
       8    H5      20.539869   20.197905   23.525010 H          1 MOL1         0.0993
       9    H6      22.132167   19.454108   23.552649 H          1 MOL1         0.0993
      10    C3      20.561724   18.105966   22.883544 C.3        1 MOL1        -0.1338
      11    H7      19.486560   17.953789   23.042501 H          1 MOL1         0.0993
      12    H8      21.050567   17.174803   23.201893 H          1 MOL1         0.0993
      13    C4      20.838952   18.312487   21.371993 C.3        1 MOL1        -0.1338
      14    H9      21.924924   18.347078   21.208664 H          1 MOL1         0.0993
      15    H10     20.481328   17.429561   20.824489 H          1 MOL1         0.0993
      16    C5      20.199394   19.580381   20.749877 C.3        1 MOL1        -0.1313
      17    H11     20.458942   19.614730   19.682540 H          1 MOL1         0.0993
      18    H12     20.638409   20.483923   21.193698 H          1 MOL1         0.0993
      19    C6      18.660631   19.625867   20.889386 C.3        1 MOL1        -0.2328
      20    H13     18.199544   18.721979   20.470696 H          1 MOL1         0.1004
      21    H14     18.251312   20.491137   20.352172 H          1 MOL1         0.1004
      22    H15     18.353936   19.714235   21.938956 H          1 MOL1         0.1004
      23    C7      18.647644   19.985896   25.619399 C.3        1 MOL1        -0.0781
      24    H16     18.586556   20.268657   24.566583 H          1 MOL1         0.0978
      25    H17     17.646047   19.779174   26.002950 H          1 MOL1         0.0978
      26    H18     19.103357   20.794450   26.195029 H          1 MOL1         0.0978
@<TRIPOS>BOND
    1     1     2    1
    2     1     3    1
    3     1     4    1
    4     4     5    1
    5     4     6    1
    6     4     7    1
    7     7     8    1
    8     7     9    1
    9     7    10    1
   10    10    11    1
   11    10    12    1
   12    10    13    1
   13    13    14    1
   14    13    15    1
   15    13    16    1
   16    16    17    1
   17    16    18    1
   18    16    19    1
   19    19    20    1
   20    19    21    1
   21    19    22    1
   22     1    23    1
   23    23    24    1
   24    23    25    1
   25    23    26    1
@<TRIPOS>SUBSTRUCTURE
       1 MOL1            1 RESIDUE      1      MOL     
@<SCITEGIC>MOL_PROPERTY
VM2 Rank
SciTegic.value.IntegerValue
73

@<SCITEGIC>MOL_PROPERTY
Conf_Id
SciTegic.value.IntegerValue
158

@<SCITEGIC>MOL_PROPERTY
Probability
SciTegic.value.DoubleValue
0.30

@<SCITEGIC>MOL_PROPERTY
Sum Probability
SciTegic.value.DoubleValue
92.45

@<SCITEGIC>MOL_PROPERTY
Delta G
SciTegic.value.DoubleValue
1.871

@<SCITEGIC>MOL_PROPERTY
G
SciTegic.value.DoubleValue
77.337

@<SCITEGIC>MOL_PROPERTY
E
SciTegic.value.DoubleValue
44.374

@<SCITEGIC>MOL_PROPERTY
-TS
SciTegic.value.DoubleValue
32.962

@<SCITEGIC>MOL_PROPERTY
U+W
SciTegic.value.DoubleValue
22.913

@<SCITEGIC>MOL_PROPERTY
U
SciTegic.value.DoubleValue
72.925

@<SCITEGIC>MOL_PROPERTY
W
SciTegic.value.DoubleValue
-50.013

@<SCITEGIC>MOL_PROPERTY
W(PB)
SciTegic.value.DoubleValue
-52.194

@<SCITEGIC>MOL_PROPERTY
W(SA)
SciTegic.value.DoubleValue
2.182

@<SCITEGIC>MOL_PROPERTY
Valence
SciTegic.value.DoubleValue
3.007

@<SCITEGIC>MOL_PROPERTY
Coulomb
SciTegic.value.DoubleValue
69.582

@<SCITEGIC>MOL_PROPERTY
VdW
SciTegic.value.DoubleValue
0.336

@<SCITEGIC>MOL_PROPERTY
VdW6
SciTegic.value.DoubleValue
-8.608

@<SCITEGIC>MOL_PROPERTY
VdW12
SciTegic.value.DoubleValue
8.943

@<SCITEGIC>MOL_PROPERTY
Bond
SciTegic.value.DoubleValue
0.266

@<SCITEGIC>MOL_PROPERTY
Angle
SciTegic.value.DoubleValue
1.183

@<SCITEGIC>MOL_PROPERTY
Pdih
SciTegic.value.DoubleValue
1.559

@<SCITEGIC>MOL_PROPERTY
Idih
SciTegic.value.DoubleValue
0.000

@<SCITEGIC>MOL_PROPERTY
Tether
SciTegic.value.DoubleValue
0.000

@<TRIPOS>MOLECULE
guest-s12_vm2.mol2 : vm2 ligand conformer 74
          26          25           1
SMALL
USER_CHARGES
 
@<TRIPOS>ATOM
       1    N1      20.034517   19.228478   26.079648 N.4        1 MOL1        -0.4857
       2    H1      20.653554   19.731788   26.734836 H          1 MOL1         0.3650
       3    H2      19.857232   18.316503   26.528210 H          1 MOL1         0.3650
       4    C1      20.749485   19.031840   24.753682 C.3        1 MOL1         0.0209
       5    H3      21.742362   18.631808   24.974379 H          1 MOL1         0.0967
       6    H4      20.874015   20.014476   24.292458 H          1 MOL1         0.0967
       7    C2      20.031679   18.078965   23.774683 C.3        1 MOL1        -0.1378
       8    H5      19.872043   17.111292   24.268129 H          1 MOL1         0.0993
       9    H6      19.035364   18.468502   23.532374 H          1 MOL1         0.0993
      10    C3      20.835025   17.850313   22.470393 C.3        1 MOL1        -0.1338
      11    H7      20.282894   17.152977   21.826282 H          1 MOL1         0.0993
      12    H8      21.777071   17.341741   22.717806 H          1 MOL1         0.0993
      13    C4      21.163874   19.142460   21.674547 C.3        1 MOL1        -0.1338
      14    H9      21.859136   19.762257   22.256609 H          1 MOL1         0.0993
      15    H10     21.710498   18.863439   20.763210 H          1 MOL1         0.0993
      16    C5      19.937138   20.003201   21.278331 C.3        1 MOL1        -0.1313
      17    H11     20.292379   20.889909   20.734943 H          1 MOL1         0.0993
      18    H12     19.433764   20.383853   22.177214 H          1 MOL1         0.0993
      19    C6      18.920823   19.249910   20.390372 C.3        1 MOL1        -0.2328
      20    H13     19.404301   18.850323   19.489540 H          1 MOL1         0.1004
      21    H14     18.116867   19.924446   20.068681 H          1 MOL1         0.1004
      22    H15     18.455884   18.415324   20.929624 H          1 MOL1         0.1004
      23    C7      18.735459   20.004833   25.895344 C.3        1 MOL1        -0.0781
      24    H16     18.061180   19.434998   25.252986 H          1 MOL1         0.0978
      25    H17     18.269793   20.158374   26.871388 H          1 MOL1         0.0978
      26    H18     18.956926   20.970904   25.436577 H          1 MOL1         0.0978
@<TRIPOS>BOND
    1     1     2    1
    2     1     3    1
    3     1     4    1
    4     4     5    1
    5     4     6    1
    6     4     7    1
    7     7     8    1
    8     7     9    1
    9     7    10    1
   10    10    11    1
   11    10    12    1
   12    10    13    1
   13    13    14    1
   14    13    15    1
   15    13    16    1
   16    16    17    1
   17    16    18    1
   18    16    19    1
   19    19    20    1
   20    19    21    1
   21    19    22    1
   22     1    23    1
   23    23    24    1
   24    23    25    1
   25    23    26    1
@<TRIPOS>SUBSTRUCTURE
       1 MOL1            1 RESIDUE      1      MOL     
@<SCITEGIC>MOL_PROPERTY
VM2 Rank
SciTegic.value.IntegerValue
74

@<SCITEGIC>MOL_PROPERTY
Conf_Id
SciTegic.value.IntegerValue
1467

@<SCITEGIC>MOL_PROPERTY
Probability
SciTegic.value.DoubleValue
0.29

@<SCITEGIC>MOL_PROPERTY
Sum Probability
SciTegic.value.DoubleValue
92.74

@<SCITEGIC>MOL_PROPERTY
Delta G
SciTegic.value.DoubleValue
1.879

@<SCITEGIC>MOL_PROPERTY
G
SciTegic.value.DoubleValue
77.345

@<SCITEGIC>MOL_PROPERTY
E
SciTegic.value.DoubleValue
44.338

@<SCITEGIC>MOL_PROPERTY
-TS
SciTegic.value.DoubleValue
33.007

@<SCITEGIC>MOL_PROPERTY
U+W
SciTegic.value.DoubleValue
22.876

@<SCITEGIC>MOL_PROPERTY
U
SciTegic.value.DoubleValue
72.761

@<SCITEGIC>MOL_PROPERTY
W
SciTegic.value.DoubleValue
-49.885

@<SCITEGIC>MOL_PROPERTY
W(PB)
SciTegic.value.DoubleValue
-52.087

@<SCITEGIC>MOL_PROPERTY
W(SA)
SciTegic.value.DoubleValue
2.202

@<SCITEGIC>MOL_PROPERTY
Valence
SciTegic.value.DoubleValue
3.172

@<SCITEGIC>MOL_PROPERTY
Coulomb
SciTegic.value.DoubleValue
69.298

@<SCITEGIC>MOL_PROPERTY
VdW
SciTegic.value.DoubleValue
0.291

@<SCITEGIC>MOL_PROPERTY
VdW6
SciTegic.value.DoubleValue
-8.615

@<SCITEGIC>MOL_PROPERTY
VdW12
SciTegic.value.DoubleValue
8.906

@<SCITEGIC>MOL_PROPERTY
Bond
SciTegic.value.DoubleValue
0.269

@<SCITEGIC>MOL_PROPERTY
Angle
SciTegic.value.DoubleValue
1.270

@<SCITEGIC>MOL_PROPERTY
Pdih
SciTegic.value.DoubleValue
1.633

@<SCITEGIC>MOL_PROPERTY
Idih
SciTegic.value.DoubleValue
0.000

@<SCITEGIC>MOL_PROPERTY
Tether
SciTegic.value.DoubleValue
0.000

@<TRIPOS>MOLECULE
guest-s12_vm2.mol2 : vm2 ligand conformer 75
          26          25           1
SMALL
USER_CHARGES
 
@<TRIPOS>ATOM
       1    N1      19.376973   19.287625   25.578825 N.4        1 MOL1        -0.4857
       2    H1      18.739514   18.546845   25.909732 H          1 MOL1         0.3650
       3    H2      18.881058   19.754495   24.804733 H          1 MOL1         0.3650
       4    C1      20.668430   18.676142   25.071985 C.3        1 MOL1         0.0209
       5    H3      21.155465   18.183356   25.917284 H          1 MOL1         0.0967
       6    H4      21.316140   19.488734   24.734856 H          1 MOL1         0.0967
       7    C2      20.470980   17.657429   23.930203 C.3        1 MOL1        -0.1378
       8    H5      21.448827   17.235588   23.662456 H          1 MOL1         0.0993
       9    H6      19.867351   16.817824   24.299661 H          1 MOL1         0.0993
      10    C3      19.804674   18.246929   22.661101 C.3        1 MOL1        -0.1338
      11    H7      18.789994   18.593764   22.897416 H          1 MOL1         0.0993
      12    H8      19.687051   17.435382   21.931355 H          1 MOL1         0.0993
      13    C4      20.618885   19.402259   22.024542 C.3        1 MOL1        -0.1338
      14    H9      20.757716   20.204642   22.760997 H          1 MOL1         0.0993
      15    H10     21.624738   19.045912   21.762821 H          1 MOL1         0.0993
      16    C5      19.945678   20.012902   20.771276 C.3        1 MOL1        -0.1313
      17    H11     20.524049   20.892228   20.454761 H          1 MOL1         0.0993
      18    H12     18.943367   20.382176   21.029657 H          1 MOL1         0.0993
      19    C6      19.847451   19.029770   19.582379 C.3        1 MOL1        -0.2328
      20    H13     20.833119   18.620560   19.325486 H          1 MOL1         0.1004
      21    H14     19.454746   19.540426   18.693595 H          1 MOL1         0.1004
      22    H15     19.174278   18.192667   19.804440 H          1 MOL1         0.1004
      23    C7      19.674929   20.276944   26.696688 C.3        1 MOL1        -0.0781
      24    H16     20.172436   19.753495   27.516083 H          1 MOL1         0.0978
      25    H17     20.324580   21.066906   26.313513 H          1 MOL1         0.0978
      26    H18     18.736969   20.710087   27.051258 H          1 MOL1         0.0978
@<TRIPOS>BOND
    1     1     2    1
    2     1     3    1
    3     1     4    1
    4     4     5    1
    5     4     6    1
    6     4     7    1
    7     7     8    1
    8     7     9    1
    9     7    10    1
   10    10    11    1
   11    10    12    1
   12    10    13    1
   13    13    14    1
   14    13    15    1
   15    13    16    1
   16    16    17    1
   17    16    18    1
   18    16    19    1
   19    19    20    1
   20    19    21    1
   21    19    22    1
   22     1    23    1
   23    23    24    1
   24    23    25    1
   25    23    26    1
@<TRIPOS>SUBSTRUCTURE
       1 MOL1            1 RESIDUE      1      MOL     
@<SCITEGIC>MOL_PROPERTY
VM2 Rank
SciTegic.value.IntegerValue
75

@<SCITEGIC>MOL_PROPERTY
Conf_Id
SciTegic.value.IntegerValue
139

@<SCITEGIC>MOL_PROPERTY
Probability
SciTegic.value.DoubleValue
0.29

@<SCITEGIC>MOL_PROPERTY
Sum Probability
SciTegic.value.DoubleValue
93.03

@<SCITEGIC>MOL_PROPERTY
Delta G
SciTegic.value.DoubleValue
1.886

@<SCITEGIC>MOL_PROPERTY
G
SciTegic.value.DoubleValue
77.352

@<SCITEGIC>MOL_PROPERTY
E
SciTegic.value.DoubleValue
44.823

@<SCITEGIC>MOL_PROPERTY
-TS
SciTegic.value.DoubleValue
32.530

@<SCITEGIC>MOL_PROPERTY
U+W
SciTegic.value.DoubleValue
23.361

@<SCITEGIC>MOL_PROPERTY
U
SciTegic.value.DoubleValue
72.579

@<SCITEGIC>MOL_PROPERTY
W
SciTegic.value.DoubleValue
-49.218

@<SCITEGIC>MOL_PROPERTY
W(PB)
SciTegic.value.DoubleValue
-51.496

@<SCITEGIC>MOL_PROPERTY
W(SA)
SciTegic.value.DoubleValue
2.279

@<SCITEGIC>MOL_PROPERTY
Valence
SciTegic.value.DoubleValue
2.678

@<SCITEGIC>MOL_PROPERTY
Coulomb
SciTegic.value.DoubleValue
69.622

@<SCITEGIC>MOL_PROPERTY
VdW
SciTegic.value.DoubleValue
0.279

@<SCITEGIC>MOL_PROPERTY
VdW6
SciTegic.value.DoubleValue
-7.328

@<SCITEGIC>MOL_PROPERTY
VdW12
SciTegic.value.DoubleValue
7.608

@<SCITEGIC>MOL_PROPERTY
Bond
SciTegic.value.DoubleValue
0.212

@<SCITEGIC>MOL_PROPERTY
Angle
SciTegic.value.DoubleValue
0.911

@<SCITEGIC>MOL_PROPERTY
Pdih
SciTegic.value.DoubleValue
1.555

@<SCITEGIC>MOL_PROPERTY
Idih
SciTegic.value.DoubleValue
0.000

@<SCITEGIC>MOL_PROPERTY
Tether
SciTegic.value.DoubleValue
0.000

@<TRIPOS>MOLECULE
guest-s12_vm2.mol2 : vm2 ligand conformer 76
          26          25           1
SMALL
USER_CHARGES
 
@<TRIPOS>ATOM
       1    N1      20.484526   18.833876   25.790208 N.4        1 MOL1        -0.4857
       2    H1      21.090050   18.155401   25.304829 H          1 MOL1         0.3650
       3    H2      20.465127   18.520320   26.773618 H          1 MOL1         0.3650
       4    C1      19.078253   18.785072   25.212863 C.3        1 MOL1         0.0209
       5    H3      18.473632   19.518656   25.752083 H          1 MOL1         0.0967
       6    H4      18.672202   17.793011   25.426231 H          1 MOL1         0.0967
       7    C2      18.980798   19.051566   23.694941 C.3        1 MOL1        -0.1378
       8    H5      17.922914   19.013909   23.403610 H          1 MOL1         0.0993
       9    H6      19.325098   20.070869   23.481857 H          1 MOL1         0.0993
      10    C3      19.780919   18.024248   22.855967 C.3        1 MOL1        -0.1338
      11    H7      19.473954   17.009893   23.146200 H          1 MOL1         0.0993
      12    H8      20.850504   18.096352   23.090901 H          1 MOL1         0.0993
      13    C4      19.573546   18.179981   21.327231 C.3        1 MOL1        -0.1338
      14    H9      20.143460   17.394092   20.812654 H          1 MOL1         0.0993
      15    H10     18.518057   17.990460   21.087993 H          1 MOL1         0.0993
      16    C5      19.979093   19.557211   20.742090 C.3        1 MOL1        -0.1313
      17    H11     19.332629   20.347163   21.147261 H          1 MOL1         0.0993
      18    H12     19.793631   19.544857   19.658944 H          1 MOL1         0.0993
      19    C6      21.461494   19.919003   20.988906 C.3        1 MOL1        -0.2328
      20    H13     21.719653   20.854117   20.475340 H          1 MOL1         0.1004
      21    H14     22.127811   19.133116   20.610330 H          1 MOL1         0.1004
      22    H15     21.668825   20.061265   22.056728 H          1 MOL1         0.1004
      23    C7      21.069371   20.239043   25.704793 C.3        1 MOL1        -0.0781
      24    H16     20.417482   20.931931   26.241198 H          1 MOL1         0.0978
      25    H17     22.062785   20.240822   26.158852 H          1 MOL1         0.0978
      26    H18     21.144137   20.535878   24.656745 H          1 MOL1         0.0978
@<TRIPOS>BOND
    1     1     2    1
    2     1     3    1
    3     1     4    1
    4     4     5    1
    5     4     6    1
    6     4     7    1
    7     7     8    1
    8     7     9    1
    9     7    10    1
   10    10    11    1
   11    10    12    1
   12    10    13    1
   13    13    14    1
   14    13    15    1
   15    13    16    1
   16    16    17    1
   17    16    18    1
   18    16    19    1
   19    19    20    1
   20    19    21    1
   21    19    22    1
   22     1    23    1
   23    23    24    1
   24    23    25    1
   25    23    26    1
@<TRIPOS>SUBSTRUCTURE
       1 MOL1            1 RESIDUE      1      MOL     
@<SCITEGIC>MOL_PROPERTY
VM2 Rank
SciTegic.value.IntegerValue
76

@<SCITEGIC>MOL_PROPERTY
Conf_Id
SciTegic.value.IntegerValue
1345

@<SCITEGIC>MOL_PROPERTY
Probability
SciTegic.value.DoubleValue
0.28

@<SCITEGIC>MOL_PROPERTY
Sum Probability
SciTegic.value.DoubleValue
93.32

@<SCITEGIC>MOL_PROPERTY
Delta G
SciTegic.value.DoubleValue
1.896

@<SCITEGIC>MOL_PROPERTY
G
SciTegic.value.DoubleValue
77.362

@<SCITEGIC>MOL_PROPERTY
E
SciTegic.value.DoubleValue
44.399

@<SCITEGIC>MOL_PROPERTY
-TS
SciTegic.value.DoubleValue
32.963

@<SCITEGIC>MOL_PROPERTY
U+W
SciTegic.value.DoubleValue
22.937

@<SCITEGIC>MOL_PROPERTY
U
SciTegic.value.DoubleValue
72.926

@<SCITEGIC>MOL_PROPERTY
W
SciTegic.value.DoubleValue
-49.989

@<SCITEGIC>MOL_PROPERTY
W(PB)
SciTegic.value.DoubleValue
-52.181

@<SCITEGIC>MOL_PROPERTY
W(SA)
SciTegic.value.DoubleValue
2.192

@<SCITEGIC>MOL_PROPERTY
Valence
SciTegic.value.DoubleValue
3.007

@<SCITEGIC>MOL_PROPERTY
Coulomb
SciTegic.value.DoubleValue
69.583

@<SCITEGIC>MOL_PROPERTY
VdW
SciTegic.value.DoubleValue
0.336

@<SCITEGIC>MOL_PROPERTY
VdW6
SciTegic.value.DoubleValue
-8.609

@<SCITEGIC>MOL_PROPERTY
VdW12
SciTegic.value.DoubleValue
8.945

@<SCITEGIC>MOL_PROPERTY
Bond
SciTegic.value.DoubleValue
0.266

@<SCITEGIC>MOL_PROPERTY
Angle
SciTegic.value.DoubleValue
1.183

@<SCITEGIC>MOL_PROPERTY
Pdih
SciTegic.value.DoubleValue
1.558

@<SCITEGIC>MOL_PROPERTY
Idih
SciTegic.value.DoubleValue
0.000

@<SCITEGIC>MOL_PROPERTY
Tether
SciTegic.value.DoubleValue
0.000

@<TRIPOS>MOLECULE
guest-s12_vm2.mol2 : vm2 ligand conformer 77
          26          25           1
SMALL
USER_CHARGES
 
@<TRIPOS>ATOM
       1    N1      19.840375   19.208307   26.072730 N.4        1 MOL1        -0.4857
       2    H1      20.169128   18.348837   26.539173 H          1 MOL1         0.3650
       3    H2      19.087119   19.569265   26.679455 H          1 MOL1         0.3650
       4    C1      19.275221   18.878856   24.701565 C.3        1 MOL1         0.0209
       5    H3      18.984457   19.818406   24.225637 H          1 MOL1         0.0967
       6    H4      18.372472   18.282252   24.855327 H          1 MOL1         0.0967
       7    C2      20.239629   18.100396   23.782015 C.3        1 MOL1        -0.1378
       8    H5      21.149489   18.687493   23.607186 H          1 MOL1         0.0993
       9    H6      20.559179   17.182344   24.292339 H          1 MOL1         0.0993
      10    C3      19.593349   17.721632   22.426406 C.3        1 MOL1        -0.1338
      11    H7      18.760438   17.029168   22.610966 H          1 MOL1         0.0993
      12    H8      20.320224   17.156832   21.827525 H          1 MOL1         0.0993
      13    C4      19.063400   18.924857   21.600233 C.3        1 MOL1        -0.1338
      14    H9      18.650627   18.546496   20.654905 H          1 MOL1         0.0993
      15    H10     18.216972   19.384887   22.127742 H          1 MOL1         0.0993
      16    C5      20.112543   20.021424   21.284661 C.3        1 MOL1        -0.1313
      17    H11     20.463107   20.490545   22.213803 H          1 MOL1         0.0993
      18    H12     19.622179   20.820524   20.711338 H          1 MOL1         0.0993
      19    C6      21.321197   19.498705   20.475506 C.3        1 MOL1        -0.2328
      20    H13     21.908340   18.773201   21.052052 H          1 MOL1         0.1004
      21    H14     21.990427   20.325920   20.205920 H          1 MOL1         0.1004
      22    H15     20.994064   19.015041   19.546005 H          1 MOL1         0.1004
      23    C7      20.962286   20.235823   25.973884 C.3        1 MOL1        -0.0781
      24    H16     20.580012   21.139251   25.493785 H          1 MOL1         0.0978
      25    H17     21.317320   20.474525   26.978898 H          1 MOL1         0.0978
      26    H18     21.782212   19.820997   25.384282 H          1 MOL1         0.0978
@<TRIPOS>BOND
    1     1     2    1
    2     1     3    1
    3     1     4    1
    4     4     5    1
    5     4     6    1
    6     4     7    1
    7     7     8    1
    8     7     9    1
    9     7    10    1
   10    10    11    1
   11    10    12    1
   12    10    13    1
   13    13    14    1
   14    13    15    1
   15    13    16    1
   16    16    17    1
   17    16    18    1
   18    16    19    1
   19    19    20    1
   20    19    21    1
   21    19    22    1
   22     1    23    1
   23    23    24    1
   24    23    25    1
   25    23    26    1
@<TRIPOS>SUBSTRUCTURE
       1 MOL1            1 RESIDUE      1      MOL     
@<SCITEGIC>MOL_PROPERTY
VM2 Rank
SciTegic.value.IntegerValue
77

@<SCITEGIC>MOL_PROPERTY
Conf_Id
SciTegic.value.IntegerValue
957

@<SCITEGIC>MOL_PROPERTY
Probability
SciTegic.value.DoubleValue
0.28

@<SCITEGIC>MOL_PROPERTY
Sum Probability
SciTegic.value.DoubleValue
93.60

@<SCITEGIC>MOL_PROPERTY
Delta G
SciTegic.value.DoubleValue
1.900

@<SCITEGIC>MOL_PROPERTY
G
SciTegic.value.DoubleValue
77.366

@<SCITEGIC>MOL_PROPERTY
E
SciTegic.value.DoubleValue
44.359

@<SCITEGIC>MOL_PROPERTY
-TS
SciTegic.value.DoubleValue
33.007

@<SCITEGIC>MOL_PROPERTY
U+W
SciTegic.value.DoubleValue
22.897

@<SCITEGIC>MOL_PROPERTY
U
SciTegic.value.DoubleValue
72.761

@<SCITEGIC>MOL_PROPERTY
W
SciTegic.value.DoubleValue
-49.864

@<SCITEGIC>MOL_PROPERTY
W(PB)
SciTegic.value.DoubleValue
-52.061

@<SCITEGIC>MOL_PROPERTY
W(SA)
SciTegic.value.DoubleValue
2.196

@<SCITEGIC>MOL_PROPERTY
Valence
SciTegic.value.DoubleValue
3.172

@<SCITEGIC>MOL_PROPERTY
Coulomb
SciTegic.value.DoubleValue
69.298

@<SCITEGIC>MOL_PROPERTY
VdW
SciTegic.value.DoubleValue
0.291

@<SCITEGIC>MOL_PROPERTY
VdW6
SciTegic.value.DoubleValue
-8.615

@<SCITEGIC>MOL_PROPERTY
VdW12
SciTegic.value.DoubleValue
8.906

@<SCITEGIC>MOL_PROPERTY
Bond
SciTegic.value.DoubleValue
0.269

@<SCITEGIC>MOL_PROPERTY
Angle
SciTegic.value.DoubleValue
1.270

@<SCITEGIC>MOL_PROPERTY
Pdih
SciTegic.value.DoubleValue
1.633

@<SCITEGIC>MOL_PROPERTY
Idih
SciTegic.value.DoubleValue
0.000

@<SCITEGIC>MOL_PROPERTY
Tether
SciTegic.value.DoubleValue
0.000

@<TRIPOS>MOLECULE
guest-s12_vm2.mol2 : vm2 ligand conformer 78
          26          25           1
SMALL
USER_CHARGES
 
@<TRIPOS>ATOM
       1    N1      20.678239   18.990928   25.403408 N.4        1 MOL1        -0.4857
       2    H1      21.285329   19.075344   24.574326 H          1 MOL1         0.3650
       3    H2      20.874006   18.057475   25.797064 H          1 MOL1         0.3650
       4    C1      19.222624   19.087794   24.990404 C.3        1 MOL1         0.0209
       5    H3      19.053892   20.088260   24.585058 H          1 MOL1         0.0967
       6    H4      18.614299   18.979852   25.891988 H          1 MOL1         0.0967
       7    C2      18.796264   18.027358   23.954179 C.3        1 MOL1        -0.1378
       8    H5      18.918135   17.027334   24.391088 H          1 MOL1         0.0993
       9    H6      17.723070   18.144124   23.753107 H          1 MOL1         0.0993
      10    C3      19.577825   18.102543   22.618326 C.3        1 MOL1        -0.1338
      11    H7      19.208469   17.310943   21.951869 H          1 MOL1         0.0993
      12    H8      20.636579   17.878885   22.800106 H          1 MOL1         0.0993
      13    C4      19.435188   19.472482   21.907766 C.3        1 MOL1        -0.1338
      14    H9      18.368131   19.715091   21.808475 H          1 MOL1         0.0993
      15    H10     19.877170   20.267375   22.523259 H          1 MOL1         0.0993
      16    C5      20.079514   19.503967   20.500834 C.3        1 MOL1        -0.1313
      17    H11     19.842013   20.466056   20.025589 H          1 MOL1         0.0993
      18    H12     19.627171   18.728681   19.866695 H          1 MOL1         0.0993
      19    C6      21.614856   19.326003   20.524997 C.3        1 MOL1        -0.2328
      20    H13     22.030948   19.445837   19.516316 H          1 MOL1         0.1004
      21    H14     21.900130   18.328735   20.881977 H          1 MOL1         0.1004
      22    H15     22.089325   20.073488   21.173903 H          1 MOL1         0.1004
      23    C7      21.003490   20.078924   26.417086 C.3        1 MOL1        -0.0781
      24    H16     20.369375   19.950718   27.297073 H          1 MOL1         0.0978
      25    H17     22.054152   19.998219   26.704657 H          1 MOL1         0.0978
      26    H18     20.818243   21.056516   25.966638 H          1 MOL1         0.0978
@<TRIPOS>BOND
    1     1     2    1
    2     1     3    1
    3     1     4    1
    4     4     5    1
    5     4     6    1
    6     4     7    1
    7     7     8    1
    8     7     9    1
    9     7    10    1
   10    10    11    1
   11    10    12    1
   12    10    13    1
   13    13    14    1
   14    13    15    1
   15    13    16    1
   16    16    17    1
   17    16    18    1
   18    16    19    1
   19    19    20    1
   20    19    21    1
   21    19    22    1
   22     1    23    1
   23    23    24    1
   24    23    25    1
   25    23    26    1
@<TRIPOS>SUBSTRUCTURE
       1 MOL1            1 RESIDUE      1      MOL     
@<SCITEGIC>MOL_PROPERTY
VM2 Rank
SciTegic.value.IntegerValue
78

@<SCITEGIC>MOL_PROPERTY
Conf_Id
SciTegic.value.IntegerValue
702

@<SCITEGIC>MOL_PROPERTY
Probability
SciTegic.value.DoubleValue
0.28

@<SCITEGIC>MOL_PROPERTY
Sum Probability
SciTegic.value.DoubleValue
93.88

@<SCITEGIC>MOL_PROPERTY
Delta G
SciTegic.value.DoubleValue
1.901

@<SCITEGIC>MOL_PROPERTY
G
SciTegic.value.DoubleValue
77.367

@<SCITEGIC>MOL_PROPERTY
E
SciTegic.value.DoubleValue
44.799

@<SCITEGIC>MOL_PROPERTY
-TS
SciTegic.value.DoubleValue
32.567

@<SCITEGIC>MOL_PROPERTY
U+W
SciTegic.value.DoubleValue
23.337

@<SCITEGIC>MOL_PROPERTY
U
SciTegic.value.DoubleValue
72.650

@<SCITEGIC>MOL_PROPERTY
W
SciTegic.value.DoubleValue
-49.313

@<SCITEGIC>MOL_PROPERTY
W(PB)
SciTegic.value.DoubleValue
-51.570

@<SCITEGIC>MOL_PROPERTY
W(SA)
SciTegic.value.DoubleValue
2.258

@<SCITEGIC>MOL_PROPERTY
Valence
SciTegic.value.DoubleValue
2.607

@<SCITEGIC>MOL_PROPERTY
Coulomb
SciTegic.value.DoubleValue
69.873

@<SCITEGIC>MOL_PROPERTY
VdW
SciTegic.value.DoubleValue
0.170

@<SCITEGIC>MOL_PROPERTY
VdW6
SciTegic.value.DoubleValue
-7.459

@<SCITEGIC>MOL_PROPERTY
VdW12
SciTegic.value.DoubleValue
7.629

@<SCITEGIC>MOL_PROPERTY
Bond
SciTegic.value.DoubleValue
0.205

@<SCITEGIC>MOL_PROPERTY
Angle
SciTegic.value.DoubleValue
0.826

@<SCITEGIC>MOL_PROPERTY
Pdih
SciTegic.value.DoubleValue
1.577

@<SCITEGIC>MOL_PROPERTY
Idih
SciTegic.value.DoubleValue
0.000

@<SCITEGIC>MOL_PROPERTY
Tether
SciTegic.value.DoubleValue
0.000

@<TRIPOS>MOLECULE
guest-s12_vm2.mol2 : vm2 ligand conformer 79
          26          25           1
SMALL
USER_CHARGES
 
@<TRIPOS>ATOM
       1    N1      19.774093   18.416675   25.530526 N.4        1 MOL1        -0.4857
       2    H1      20.302540   17.575079   25.253122 H          1 MOL1         0.3650
       3    H2      18.869260   18.349741   25.040745 H          1 MOL1         0.3650
       4    C1      20.513137   19.665520   25.090055 C.3        1 MOL1         0.0209
       5    H3      21.462418   19.695101   25.630970 H          1 MOL1         0.0967
       6    H4      19.920709   20.532581   25.392798 H          1 MOL1         0.0967
       7    C2      20.786203   19.727516   23.574468 C.3        1 MOL1        -0.1378
       8    H5      21.404225   20.611410   23.368449 H          1 MOL1         0.0993
       9    H6      21.379844   18.852689   23.280313 H          1 MOL1         0.0993
      10    C3      19.484875   19.805151   22.737583 C.3        1 MOL1        -0.1338
      11    H7      18.865374   20.629457   23.117445 H          1 MOL1         0.0993
      12    H8      18.891019   18.892478   22.874298 H          1 MOL1         0.0993
      13    C4      19.736575   20.040681   21.225750 C.3        1 MOL1        -0.1338
      14    H9      18.766980   20.122154   20.715365 H          1 MOL1         0.0993
      15    H10     20.228138   21.014252   21.092443 H          1 MOL1         0.0993
      16    C5      20.584720   18.952227   20.519231 C.3        1 MOL1        -0.1313
      17    H11     21.601924   18.935197   20.932919 H          1 MOL1         0.0993
      18    H12     20.696219   19.228320   19.461350 H          1 MOL1         0.0993
      19    C6      19.964375   17.538901   20.601364 C.3        1 MOL1        -0.2328
      20    H13     19.941919   17.168470   21.633665 H          1 MOL1         0.1004
      21    H14     20.551586   16.826260   20.007917 H          1 MOL1         0.1004
      22    H15     18.938254   17.534972   20.211496 H          1 MOL1         0.1004
      23    C7      19.564023   18.443329   27.038023 C.3        1 MOL1        -0.0781
      24    H16     18.976471   19.325034   27.303191 H          1 MOL1         0.0978
      25    H17     19.030810   17.539637   27.341568 H          1 MOL1         0.0978
      26    H18     20.535683   18.482839   27.535256 H          1 MOL1         0.0978
@<TRIPOS>BOND
    1     1     2    1
    2     1     3    1
    3     1     4    1
    4     4     5    1
    5     4     6    1
    6     4     7    1
    7     7     8    1
    8     7     9    1
    9     7    10    1
   10    10    11    1
   11    10    12    1
   12    10    13    1
   13    13    14    1
   14    13    15    1
   15    13    16    1
   16    16    17    1
   17    16    18    1
   18    16    19    1
   19    19    20    1
   20    19    21    1
   21    19    22    1
   22     1    23    1
   23    23    24    1
   24    23    25    1
   25    23    26    1
@<TRIPOS>SUBSTRUCTURE
       1 MOL1            1 RESIDUE      1      MOL     
@<SCITEGIC>MOL_PROPERTY
VM2 Rank
SciTegic.value.IntegerValue
79

@<SCITEGIC>MOL_PROPERTY
Conf_Id
SciTegic.value.IntegerValue
1781

@<SCITEGIC>MOL_PROPERTY
Probability
SciTegic.value.DoubleValue
0.27

@<SCITEGIC>MOL_PROPERTY
Sum Probability
SciTegic.value.DoubleValue
94.15

@<SCITEGIC>MOL_PROPERTY
Delta G
SciTegic.value.DoubleValue
1.922

@<SCITEGIC>MOL_PROPERTY
G
SciTegic.value.DoubleValue
77.388

@<SCITEGIC>MOL_PROPERTY
E
SciTegic.value.DoubleValue
44.702

@<SCITEGIC>MOL_PROPERTY
-TS
SciTegic.value.DoubleValue
32.686

@<SCITEGIC>MOL_PROPERTY
U+W
SciTegic.value.DoubleValue
23.240

@<SCITEGIC>MOL_PROPERTY
U
SciTegic.value.DoubleValue
72.709

@<SCITEGIC>MOL_PROPERTY
W
SciTegic.value.DoubleValue
-49.469

@<SCITEGIC>MOL_PROPERTY
W(PB)
SciTegic.value.DoubleValue
-51.721

@<SCITEGIC>MOL_PROPERTY
W(SA)
SciTegic.value.DoubleValue
2.252

@<SCITEGIC>MOL_PROPERTY
Valence
SciTegic.value.DoubleValue
2.790

@<SCITEGIC>MOL_PROPERTY
Coulomb
SciTegic.value.DoubleValue
69.679

@<SCITEGIC>MOL_PROPERTY
VdW
SciTegic.value.DoubleValue
0.240

@<SCITEGIC>MOL_PROPERTY
VdW6
SciTegic.value.DoubleValue
-7.473

@<SCITEGIC>MOL_PROPERTY
VdW12
SciTegic.value.DoubleValue
7.713

@<SCITEGIC>MOL_PROPERTY
Bond
SciTegic.value.DoubleValue
0.222

@<SCITEGIC>MOL_PROPERTY
Angle
SciTegic.value.DoubleValue
1.030

@<SCITEGIC>MOL_PROPERTY
Pdih
SciTegic.value.DoubleValue
1.538

@<SCITEGIC>MOL_PROPERTY
Idih
SciTegic.value.DoubleValue
0.000

@<SCITEGIC>MOL_PROPERTY
Tether
SciTegic.value.DoubleValue
0.000

@<TRIPOS>MOLECULE
guest-s12_vm2.mol2 : vm2 ligand conformer 80
          26          25           1
SMALL
USER_CHARGES
 
@<TRIPOS>ATOM
       1    N1      19.307778   18.848790   25.355144 N.4        1 MOL1        -0.4857
       2    H1      19.280502   17.892165   25.740823 H          1 MOL1         0.3650
       3    H2      18.755627   18.813084   24.485134 H          1 MOL1         0.3650
       4    C1      20.737832   19.244948   25.044061 C.3        1 MOL1         0.0209
       5    H3      21.290916   19.257455   25.986667 H          1 MOL1         0.0967
       6    H4      20.725790   20.261670   24.644258 H          1 MOL1         0.0967
       7    C2      21.443778   18.301954   24.047834 C.3        1 MOL1        -0.1378
       8    H5      22.481643   18.637615   23.921427 H          1 MOL1         0.0993
       9    H6      21.499192   17.295017   24.482343 H          1 MOL1         0.0993
      10    C3      20.758727   18.225140   22.660104 C.3        1 MOL1        -0.1338
      11    H7      19.758245   17.787865   22.768994 H          1 MOL1         0.0993
      12    H8      21.328191   17.530988   22.026790 H          1 MOL1         0.0993
      13    C4      20.666795   19.600411   21.951481 C.3        1 MOL1        -0.1338
      14    H9      20.028983   20.283121   22.528664 H          1 MOL1         0.0993
      15    H10     21.665645   20.057535   21.925682 H          1 MOL1         0.0993
      16    C5      20.130218   19.509425   20.502546 C.3        1 MOL1        -0.1313
      17    H11     20.775560   18.848308   19.907338 H          1 MOL1         0.0993
      18    H12     20.197884   20.503301   20.038315 H          1 MOL1         0.0993
      19    C6      18.666335   19.019781   20.419947 C.3        1 MOL1        -0.2328
      20    H13     18.567569   17.982569   20.763161 H          1 MOL1         0.1004
      21    H14     18.306487   19.059075   19.383657 H          1 MOL1         0.1004
      22    H15     18.004040   19.649072   21.028462 H          1 MOL1         0.1004
      23    C7      18.696536   19.839550   26.335883 C.3        1 MOL1        -0.0781
      24    H16     18.708523   20.837656   25.892547 H          1 MOL1         0.0978
      25    H17     17.667250   19.543161   26.549943 H          1 MOL1         0.0978
      26    H18     19.280453   19.837500   27.258896 H          1 MOL1         0.0978
@<TRIPOS>BOND
    1     1     2    1
    2     1     3    1
    3     1     4    1
    4     4     5    1
    5     4     6    1
    6     4     7    1
    7     7     8    1
    8     7     9    1
    9     7    10    1
   10    10    11    1
   11    10    12    1
   12    10    13    1
   13    13    14    1
   14    13    15    1
   15    13    16    1
   16    16    17    1
   17    16    18    1
   18    16    19    1
   19    19    20    1
   20    19    21    1
   21    19    22    1
   22     1    23    1
   23    23    24    1
   24    23    25    1
   25    23    26    1
@<TRIPOS>SUBSTRUCTURE
       1 MOL1            1 RESIDUE      1      MOL     
@<SCITEGIC>MOL_PROPERTY
VM2 Rank
SciTegic.value.IntegerValue
80

@<SCITEGIC>MOL_PROPERTY
Conf_Id
SciTegic.value.IntegerValue
68

@<SCITEGIC>MOL_PROPERTY
Probability
SciTegic.value.DoubleValue
0.26

@<SCITEGIC>MOL_PROPERTY
Sum Probability
SciTegic.value.DoubleValue
94.41

@<SCITEGIC>MOL_PROPERTY
Delta G
SciTegic.value.DoubleValue
1.941

@<SCITEGIC>MOL_PROPERTY
G
SciTegic.value.DoubleValue
77.407

@<SCITEGIC>MOL_PROPERTY
E
SciTegic.value.DoubleValue
44.839

@<SCITEGIC>MOL_PROPERTY
-TS
SciTegic.value.DoubleValue
32.567

@<SCITEGIC>MOL_PROPERTY
U+W
SciTegic.value.DoubleValue
23.378

@<SCITEGIC>MOL_PROPERTY
U
SciTegic.value.DoubleValue
72.649

@<SCITEGIC>MOL_PROPERTY
W
SciTegic.value.DoubleValue
-49.272

@<SCITEGIC>MOL_PROPERTY
W(PB)
SciTegic.value.DoubleValue
-51.524

@<SCITEGIC>MOL_PROPERTY
W(SA)
SciTegic.value.DoubleValue
2.252

@<SCITEGIC>MOL_PROPERTY
Valence
SciTegic.value.DoubleValue
2.608

@<SCITEGIC>MOL_PROPERTY
Coulomb
SciTegic.value.DoubleValue
69.872

@<SCITEGIC>MOL_PROPERTY
VdW
SciTegic.value.DoubleValue
0.169

@<SCITEGIC>MOL_PROPERTY
VdW6
SciTegic.value.DoubleValue
-7.459

@<SCITEGIC>MOL_PROPERTY
VdW12
SciTegic.value.DoubleValue
7.628

@<SCITEGIC>MOL_PROPERTY
Bond
SciTegic.value.DoubleValue
0.205

@<SCITEGIC>MOL_PROPERTY
Angle
SciTegic.value.DoubleValue
0.826

@<SCITEGIC>MOL_PROPERTY
Pdih
SciTegic.value.DoubleValue
1.577

@<SCITEGIC>MOL_PROPERTY
Idih
SciTegic.value.DoubleValue
0.000

@<SCITEGIC>MOL_PROPERTY
Tether
SciTegic.value.DoubleValue
0.000

@<TRIPOS>MOLECULE
guest-s12_vm2.mol2 : vm2 ligand conformer 81
          26          25           1
SMALL
USER_CHARGES
 
@<TRIPOS>ATOM
       1    N1      20.125615   18.964980   26.427550 N.4        1 MOL1        -0.4857
       2    H1      20.815830   18.210372   26.563162 H          1 MOL1         0.3650
       3    H2      19.683984   19.085373   27.352892 H          1 MOL1         0.3650
       4    C1      19.065592   18.533289   25.423184 C.3        1 MOL1         0.0209
       5    H3      18.360170   19.356654   25.286459 H          1 MOL1         0.0967
       6    H4      18.523886   17.707243   25.891164 H          1 MOL1         0.0967
       7    C2      19.589740   18.046754   24.053339 C.3        1 MOL1        -0.1378
       8    H5      20.556420   17.541441   24.179145 H          1 MOL1         0.0993
       9    H6      18.891631   17.287359   23.676832 H          1 MOL1         0.0993
      10    C3      19.696879   19.175577   22.999670 C.3        1 MOL1        -0.1338
      11    H7      20.403752   19.944153   23.333255 H          1 MOL1         0.0993
      12    H8      18.720872   19.669477   22.895116 H          1 MOL1         0.0993
      13    C4      20.150074   18.635015   21.624226 C.3        1 MOL1        -0.1338
      14    H9      21.124562   18.137926   21.728118 H          1 MOL1         0.0993
      15    H10     19.440018   17.871973   21.276268 H          1 MOL1         0.0993
      16    C5      20.255407   19.758771   20.569056 C.3        1 MOL1        -0.1313
      17    H11     20.967231   20.523372   20.910629 H          1 MOL1         0.0993
      18    H12     19.282382   20.258126   20.460187 H          1 MOL1         0.0993
      19    C6      20.707917   19.215000   19.197051 C.3        1 MOL1        -0.2328
      20    H13     20.776846   20.027106   18.461690 H          1 MOL1         0.1004
      21    H14     19.996847   18.472196   18.812576 H          1 MOL1         0.1004
      22    H15     21.694854   18.739296   19.266745 H          1 MOL1         0.1004
      23    C7      20.816777   20.260615   26.022925 C.3        1 MOL1        -0.0781
      24    H16     20.063094   21.030799   25.845301 H          1 MOL1         0.0978
      25    H17     21.483240   20.575180   26.829121 H          1 MOL1         0.0978
      26    H18     21.399676   20.089696   25.116476 H          1 MOL1         0.0978
@<TRIPOS>BOND
    1     1     2    1
    2     1     3    1
    3     1     4    1
    4     4     5    1
    5     4     6    1
    6     4     7    1
    7     7     8    1
    8     7     9    1
    9     7    10    1
   10    10    11    1
   11    10    12    1
   12    10    13    1
   13    13    14    1
   14    13    15    1
   15    13    16    1
   16    16    17    1
   17    16    18    1
   18    16    19    1
   19    19    20    1
   20    19    21    1
   21    19    22    1
   22     1    23    1
   23    23    24    1
   24    23    25    1
   25    23    26    1
@<TRIPOS>SUBSTRUCTURE
       1 MOL1            1 RESIDUE      1      MOL     
@<SCITEGIC>MOL_PROPERTY
VM2 Rank
SciTegic.value.IntegerValue
81

@<SCITEGIC>MOL_PROPERTY
Conf_Id
SciTegic.value.IntegerValue
1817

@<SCITEGIC>MOL_PROPERTY
Probability
SciTegic.value.DoubleValue
0.26

@<SCITEGIC>MOL_PROPERTY
Sum Probability
SciTegic.value.DoubleValue
94.68

@<SCITEGIC>MOL_PROPERTY
Delta G
SciTegic.value.DoubleValue
1.943

@<SCITEGIC>MOL_PROPERTY
G
SciTegic.value.DoubleValue
77.409

@<SCITEGIC>MOL_PROPERTY
E
SciTegic.value.DoubleValue
45.185

@<SCITEGIC>MOL_PROPERTY
-TS
SciTegic.value.DoubleValue
32.224

@<SCITEGIC>MOL_PROPERTY
U+W
SciTegic.value.DoubleValue
23.724

@<SCITEGIC>MOL_PROPERTY
U
SciTegic.value.DoubleValue
72.994

@<SCITEGIC>MOL_PROPERTY
W
SciTegic.value.DoubleValue
-49.270

@<SCITEGIC>MOL_PROPERTY
W(PB)
SciTegic.value.DoubleValue
-51.554

@<SCITEGIC>MOL_PROPERTY
W(SA)
SciTegic.value.DoubleValue
2.284

@<SCITEGIC>MOL_PROPERTY
Valence
SciTegic.value.DoubleValue
3.858

@<SCITEGIC>MOL_PROPERTY
Coulomb
SciTegic.value.DoubleValue
68.737

@<SCITEGIC>MOL_PROPERTY
VdW
SciTegic.value.DoubleValue
0.399

@<SCITEGIC>MOL_PROPERTY
VdW6
SciTegic.value.DoubleValue
-6.843

@<SCITEGIC>MOL_PROPERTY
VdW12
SciTegic.value.DoubleValue
7.242

@<SCITEGIC>MOL_PROPERTY
Bond
SciTegic.value.DoubleValue
0.196

@<SCITEGIC>MOL_PROPERTY
Angle
SciTegic.value.DoubleValue
0.972

@<SCITEGIC>MOL_PROPERTY
Pdih
SciTegic.value.DoubleValue
2.691

@<SCITEGIC>MOL_PROPERTY
Idih
SciTegic.value.DoubleValue
0.000

@<SCITEGIC>MOL_PROPERTY
Tether
SciTegic.value.DoubleValue
0.000

@<TRIPOS>MOLECULE
guest-s12_vm2.mol2 : vm2 ligand conformer 82
          26          25           1
SMALL
USER_CHARGES
 
@<TRIPOS>ATOM
       1    N1      20.292514   18.467731   25.548745 N.4        1 MOL1        -0.4857
       2    H1      21.225135   18.581951   25.124174 H          1 MOL1         0.3650
       3    H2      19.959124   17.541213   25.240676 H          1 MOL1         0.3650
       4    C1      19.356908   19.551549   25.048945 C.3        1 MOL1         0.0209
       5    H3      19.746136   20.515347   25.386607 H          1 MOL1         0.0967
       6    H4      18.384497   19.391660   25.521649 H          1 MOL1         0.0967
       7    C2      19.184092   19.569707   23.517536 C.3        1 MOL1        -0.1378
       8    H5      18.794733   18.597942   23.188401 H          1 MOL1         0.0993
       9    H6      18.421484   20.317430   23.262573 H          1 MOL1         0.0993
      10    C3      20.500744   19.905675   22.773622 C.3        1 MOL1        -0.1338
      11    H7      21.250300   19.125658   22.958186 H          1 MOL1         0.0993
      12    H8      20.919072   20.832496   23.190228 H          1 MOL1         0.0993
      13    C4      20.314803   20.097769   21.246209 C.3        1 MOL1        -0.1338
      14    H9      19.653125   20.957422   21.071786 H          1 MOL1         0.0993
      15    H10     21.283238   20.370575   20.804673 H          1 MOL1         0.0993
      16    C5      19.747471   18.869415   20.489545 C.3        1 MOL1        -0.1313
      17    H11     19.659072   19.125523   19.424479 H          1 MOL1         0.0993
      18    H12     18.726588   18.651304   20.830657 H          1 MOL1         0.0993
      19    C6      20.624457   17.603902   20.625345 C.3        1 MOL1        -0.2328
      20    H13     20.231113   16.794375   19.997013 H          1 MOL1         0.1004
      21    H14     20.645814   17.237964   21.659271 H          1 MOL1         0.1004
      22    H15     21.656525   17.803068   20.308952 H          1 MOL1         0.1004
      23    C7      20.387011   18.524252   27.067052 C.3        1 MOL1        -0.0781
      24    H16     19.393842   18.370033   27.494555 H          1 MOL1         0.0978
      25    H17     21.063567   17.739773   27.413432 H          1 MOL1         0.0978
      26    H18     20.771256   19.501718   27.366803 H          1 MOL1         0.0978
@<TRIPOS>BOND
    1     1     2    1
    2     1     3    1
    3     1     4    1
    4     4     5    1
    5     4     6    1
    6     4     7    1
    7     7     8    1
    8     7     9    1
    9     7    10    1
   10    10    11    1
   11    10    12    1
   12    10    13    1
   13    13    14    1
   14    13    15    1
   15    13    16    1
   16    16    17    1
   17    16    18    1
   18    16    19    1
   19    19    20    1
   20    19    21    1
   21    19    22    1
   22     1    23    1
   23    23    24    1
   24    23    25    1
   25    23    26    1
@<TRIPOS>SUBSTRUCTURE
       1 MOL1            1 RESIDUE      1      MOL     
@<SCITEGIC>MOL_PROPERTY
VM2 Rank
SciTegic.value.IntegerValue
82

@<SCITEGIC>MOL_PROPERTY
Conf_Id
SciTegic.value.IntegerValue
1235

@<SCITEGIC>MOL_PROPERTY
Probability
SciTegic.value.DoubleValue
0.25

@<SCITEGIC>MOL_PROPERTY
Sum Probability
SciTegic.value.DoubleValue
94.93

@<SCITEGIC>MOL_PROPERTY
Delta G
SciTegic.value.DoubleValue
1.964

@<SCITEGIC>MOL_PROPERTY
G
SciTegic.value.DoubleValue
77.430

@<SCITEGIC>MOL_PROPERTY
E
SciTegic.value.DoubleValue
44.743

@<SCITEGIC>MOL_PROPERTY
-TS
SciTegic.value.DoubleValue
32.686

@<SCITEGIC>MOL_PROPERTY
U+W
SciTegic.value.DoubleValue
23.281

@<SCITEGIC>MOL_PROPERTY
U
SciTegic.value.DoubleValue
72.710

@<SCITEGIC>MOL_PROPERTY
W
SciTegic.value.DoubleValue
-49.428

@<SCITEGIC>MOL_PROPERTY
W(PB)
SciTegic.value.DoubleValue
-51.677

@<SCITEGIC>MOL_PROPERTY
W(SA)
SciTegic.value.DoubleValue
2.249

@<SCITEGIC>MOL_PROPERTY
Valence
SciTegic.value.DoubleValue
2.790

@<SCITEGIC>MOL_PROPERTY
Coulomb
SciTegic.value.DoubleValue
69.680

@<SCITEGIC>MOL_PROPERTY
VdW
SciTegic.value.DoubleValue
0.240

@<SCITEGIC>MOL_PROPERTY
VdW6
SciTegic.value.DoubleValue
-7.473

@<SCITEGIC>MOL_PROPERTY
VdW12
SciTegic.value.DoubleValue
7.714

@<SCITEGIC>MOL_PROPERTY
Bond
SciTegic.value.DoubleValue
0.222

@<SCITEGIC>MOL_PROPERTY
Angle
SciTegic.value.DoubleValue
1.030

@<SCITEGIC>MOL_PROPERTY
Pdih
SciTegic.value.DoubleValue
1.538

@<SCITEGIC>MOL_PROPERTY
Idih
SciTegic.value.DoubleValue
0.000

@<SCITEGIC>MOL_PROPERTY
Tether
SciTegic.value.DoubleValue
0.000

@<TRIPOS>MOLECULE
guest-s12_vm2.mol2 : vm2 ligand conformer 83
          26          25           1
SMALL
USER_CHARGES
 
@<TRIPOS>ATOM
       1    N1      19.780774   18.929633   26.415419 N.4        1 MOL1        -0.4857
       2    H1      20.122901   19.131012   27.368405 H          1 MOL1         0.3650
       3    H2      19.250822   18.049423   26.508167 H          1 MOL1         0.3650
       4    C1      20.973976   18.729644   25.490743 C.3        1 MOL1         0.0209
       5    H3      21.638254   18.027665   26.001390 H          1 MOL1         0.0967
       6    H4      21.505060   19.680190   25.397682 H          1 MOL1         0.0967
       7    C2      20.656676   18.156530   24.091182 C.3        1 MOL1        -0.1378
       8    H5      21.518910   17.557187   23.770037 H          1 MOL1         0.0993
       9    H6      19.806185   17.464778   24.152711 H          1 MOL1         0.0993
      10    C3      20.396867   19.247570   23.024380 C.3        1 MOL1        -0.1338
      11    H7      21.257436   19.929695   22.984576 H          1 MOL1         0.0993
      12    H8      19.527420   19.854639   23.302221 H          1 MOL1         0.0993
      13    C4      20.159735   18.636030   21.624658 C.3        1 MOL1        -0.1338
      14    H9      21.032164   18.035103   21.332698 H          1 MOL1         0.0993
      15    H10     19.301320   17.951122   21.663932 H          1 MOL1         0.0993
      16    C5      19.902882   19.722484   20.556507 C.3        1 MOL1        -0.1313
      17    H11     20.759794   20.409299   20.512092 H          1 MOL1         0.0993
      18    H12     19.028908   20.324682   20.842002 H          1 MOL1         0.0993
      19    C6      19.666707   19.107902   19.160310 C.3        1 MOL1        -0.2328
      20    H13     20.538502   18.527151   18.831824 H          1 MOL1         0.1004
      21    H14     19.486266   19.894320   18.415993 H          1 MOL1         0.1004
      22    H15     18.794117   18.441744   19.164493 H          1 MOL1         0.1004
      23    C7      18.870384   20.060206   25.953801 C.3        1 MOL1        -0.0781
      24    H16     18.099089   20.226890   26.709047 H          1 MOL1         0.0978
      25    H17     19.462046   20.968914   25.823577 H          1 MOL1         0.0978
      26    H18     18.399396   19.780500   25.010096 H          1 MOL1         0.0978
@<TRIPOS>BOND
    1     1     2    1
    2     1     3    1
    3     1     4    1
    4     4     5    1
    5     4     6    1
    6     4     7    1
    7     7     8    1
    8     7     9    1
    9     7    10    1
   10    10    11    1
   11    10    12    1
   12    10    13    1
   13    13    14    1
   14    13    15    1
   15    13    16    1
   16    16    17    1
   17    16    18    1
   18    16    19    1
   19    19    20    1
   20    19    21    1
   21    19    22    1
   22     1    23    1
   23    23    24    1
   24    23    25    1
   25    23    26    1
@<TRIPOS>SUBSTRUCTURE
       1 MOL1            1 RESIDUE      1      MOL     
@<SCITEGIC>MOL_PROPERTY
VM2 Rank
SciTegic.value.IntegerValue
83

@<SCITEGIC>MOL_PROPERTY
Conf_Id
SciTegic.value.IntegerValue
516

@<SCITEGIC>MOL_PROPERTY
Probability
SciTegic.value.DoubleValue
0.25

@<SCITEGIC>MOL_PROPERTY
Sum Probability
SciTegic.value.DoubleValue
95.18

@<SCITEGIC>MOL_PROPERTY
Delta G
SciTegic.value.DoubleValue
1.977

@<SCITEGIC>MOL_PROPERTY
G
SciTegic.value.DoubleValue
77.443

@<SCITEGIC>MOL_PROPERTY
E
SciTegic.value.DoubleValue
45.217

@<SCITEGIC>MOL_PROPERTY
-TS
SciTegic.value.DoubleValue
32.226

@<SCITEGIC>MOL_PROPERTY
U+W
SciTegic.value.DoubleValue
23.755

@<SCITEGIC>MOL_PROPERTY
U
SciTegic.value.DoubleValue
72.994

@<SCITEGIC>MOL_PROPERTY
W
SciTegic.value.DoubleValue
-49.239

@<SCITEGIC>MOL_PROPERTY
W(PB)
SciTegic.value.DoubleValue
-51.516

@<SCITEGIC>MOL_PROPERTY
W(SA)
SciTegic.value.DoubleValue
2.277

@<SCITEGIC>MOL_PROPERTY
Valence
SciTegic.value.DoubleValue
3.858

@<SCITEGIC>MOL_PROPERTY
Coulomb
SciTegic.value.DoubleValue
68.737

@<SCITEGIC>MOL_PROPERTY
VdW
SciTegic.value.DoubleValue
0.399

@<SCITEGIC>MOL_PROPERTY
VdW6
SciTegic.value.DoubleValue
-6.843

@<SCITEGIC>MOL_PROPERTY
VdW12
SciTegic.value.DoubleValue
7.242

@<SCITEGIC>MOL_PROPERTY
Bond
SciTegic.value.DoubleValue
0.196

@<SCITEGIC>MOL_PROPERTY
Angle
SciTegic.value.DoubleValue
0.971

@<SCITEGIC>MOL_PROPERTY
Pdih
SciTegic.value.DoubleValue
2.692

@<SCITEGIC>MOL_PROPERTY
Idih
SciTegic.value.DoubleValue
0.000

@<SCITEGIC>MOL_PROPERTY
Tether
SciTegic.value.DoubleValue
0.000

@<TRIPOS>MOLECULE
guest-s12_vm2.mol2 : vm2 ligand conformer 84
          26          25           1
SMALL
USER_CHARGES
 
@<TRIPOS>ATOM
       1    N1      20.177926   18.509966   26.002070 N.4        1 MOL1        -0.4857
       2    H1      21.112922   18.271491   25.639410 H          1 MOL1         0.3650
       3    H2      19.988232   17.808579   26.735488 H          1 MOL1         0.3650
       4    C1      19.140235   18.384125   24.897282 C.3        1 MOL1         0.0209
       5    H3      18.170824   18.654066   25.323733 H          1 MOL1         0.0967
       6    H4      19.097838   17.331098   24.607562 H          1 MOL1         0.0967
       7    C2      19.405618   19.239923   23.639172 C.3        1 MOL1        -0.1378
       8    H5      18.564865   19.092556   22.950110 H          1 MOL1         0.0993
       9    H6      19.405626   20.304632   23.905463 H          1 MOL1         0.0993
      10    C3      20.733106   18.869877   22.931208 C.3        1 MOL1        -0.1338
      11    H7      20.720707   17.808532   22.649734 H          1 MOL1         0.0993
      12    H8      21.565990   18.986099   23.637066 H          1 MOL1         0.0993
      13    C4      21.036896   19.744329   21.686846 C.3        1 MOL1        -0.1338
      14    H9      21.151191   20.789938   22.004451 H          1 MOL1         0.0993
      15    H10     22.012559   19.447066   21.278254 H          1 MOL1         0.0993
      16    C5      19.980728   19.679336   20.553786 C.3        1 MOL1        -0.1313
      17    H11     20.309389   20.331539   19.732577 H          1 MOL1         0.0993
      18    H12     19.024850   20.094276   20.900289 H          1 MOL1         0.0993
      19    C6      19.760495   18.253847   19.998416 C.3        1 MOL1        -0.2328
      20    H13     20.706947   17.810275   19.663153 H          1 MOL1         0.1004
      21    H14     19.077684   18.277079   19.139303 H          1 MOL1         0.1004
      22    H15     19.318347   17.591817   20.753282 H          1 MOL1         0.1004
      23    C7      20.172996   19.908597   26.608220 C.3        1 MOL1        -0.0781
      24    H16     19.176625   20.126797   26.998619 H          1 MOL1         0.0978
      25    H17     20.903858   19.949290   27.418911 H          1 MOL1         0.0978
      26    H18     20.437587   20.636491   25.838595 H          1 MOL1         0.0978
@<TRIPOS>BOND
    1     1     2    1
    2     1     3    1
    3     1     4    1
    4     4     5    1
    5     4     6    1
    6     4     7    1
    7     7     8    1
    8     7     9    1
    9     7    10    1
   10    10    11    1
   11    10    12    1
   12    10    13    1
   13    13    14    1
   14    13    15    1
   15    13    16    1
   16    16    17    1
   17    16    18    1
   18    16    19    1
   19    19    20    1
   20    19    21    1
   21    19    22    1
   22     1    23    1
   23    23    24    1
   24    23    25    1
   25    23    26    1
@<TRIPOS>SUBSTRUCTURE
       1 MOL1            1 RESIDUE      1      MOL     
@<SCITEGIC>MOL_PROPERTY
VM2 Rank
SciTegic.value.IntegerValue
84

@<SCITEGIC>MOL_PROPERTY
Conf_Id
SciTegic.value.IntegerValue
189

@<SCITEGIC>MOL_PROPERTY
Probability
SciTegic.value.DoubleValue
0.25

@<SCITEGIC>MOL_PROPERTY
Sum Probability
SciTegic.value.DoubleValue
95.42

@<SCITEGIC>MOL_PROPERTY
Delta G
SciTegic.value.DoubleValue
1.982

@<SCITEGIC>MOL_PROPERTY
G
SciTegic.value.DoubleValue
77.448

@<SCITEGIC>MOL_PROPERTY
E
SciTegic.value.DoubleValue
44.560

@<SCITEGIC>MOL_PROPERTY
-TS
SciTegic.value.DoubleValue
32.888

@<SCITEGIC>MOL_PROPERTY
U+W
SciTegic.value.DoubleValue
23.098

@<SCITEGIC>MOL_PROPERTY
U
SciTegic.value.DoubleValue
72.739

@<SCITEGIC>MOL_PROPERTY
W
SciTegic.value.DoubleValue
-49.641

@<SCITEGIC>MOL_PROPERTY
W(PB)
SciTegic.value.DoubleValue
-51.847

@<SCITEGIC>MOL_PROPERTY
W(SA)
SciTegic.value.DoubleValue
2.206

@<SCITEGIC>MOL_PROPERTY
Valence
SciTegic.value.DoubleValue
3.076

@<SCITEGIC>MOL_PROPERTY
Coulomb
SciTegic.value.DoubleValue
69.128

@<SCITEGIC>MOL_PROPERTY
VdW
SciTegic.value.DoubleValue
0.535

@<SCITEGIC>MOL_PROPERTY
VdW6
SciTegic.value.DoubleValue
-8.276

@<SCITEGIC>MOL_PROPERTY
VdW12
SciTegic.value.DoubleValue
8.811

@<SCITEGIC>MOL_PROPERTY
Bond
SciTegic.value.DoubleValue
0.270

@<SCITEGIC>MOL_PROPERTY
Angle
SciTegic.value.DoubleValue
1.277

@<SCITEGIC>MOL_PROPERTY
Pdih
SciTegic.value.DoubleValue
1.529

@<SCITEGIC>MOL_PROPERTY
Idih
SciTegic.value.DoubleValue
0.000

@<SCITEGIC>MOL_PROPERTY
Tether
SciTegic.value.DoubleValue
0.000

@<TRIPOS>MOLECULE
guest-s12_vm2.mol2 : vm2 ligand conformer 85
          26          25           1
SMALL
USER_CHARGES
 
@<TRIPOS>ATOM
       1    N1      19.851133   18.476539   25.990500 N.4        1 MOL1        -0.4857
       2    H1      20.126955   17.822791   26.740410 H          1 MOL1         0.3650
       3    H2      19.011435   18.056470   25.564992 H          1 MOL1         0.3650
       4    C1      20.967574   18.571103   24.961999 C.3        1 MOL1         0.0209
       5    H3      21.242267   17.550518   24.683515 H          1 MOL1         0.0967
       6    H4      21.830061   19.028489   25.453320 H          1 MOL1         0.0967
       7    C2      20.623313   19.364512   23.682293 C.3        1 MOL1        -0.1378
       8    H5      20.389276   20.405272   23.940290 H          1 MOL1         0.0993
       9    H6      21.522637   19.395206   23.054867 H          1 MOL1         0.0993
      10    C3      19.451029   18.738657   22.885784 C.3        1 MOL1        -0.1338
      11    H7      18.564515   18.678916   23.530737 H          1 MOL1         0.0993
      12    H8      19.697559   17.703812   22.613472 H          1 MOL1         0.0993
      13    C4      19.064518   19.542475   21.616976 C.3        1 MOL1        -0.1338
      14    H9      18.200231   19.056913   21.143192 H          1 MOL1         0.0993
      15    H10     18.719090   20.541031   21.918303 H          1 MOL1         0.0993
      16    C5      20.188704   19.700632   20.561168 C.3        1 MOL1        -0.1313
      17    H11     21.014198   20.297889   20.970787 H          1 MOL1         0.0993
      18    H12     19.793232   20.278725   19.714303 H          1 MOL1         0.0993
      19    C6      20.731129   18.353199   20.032818 C.3        1 MOL1        -0.2328
      20    H13     19.919852   17.729750   19.635240 H          1 MOL1         0.1004
      21    H14     21.244059   17.788899   20.821531 H          1 MOL1         0.1004
      22    H15     21.453607   18.520255   19.223518 H          1 MOL1         0.1004
      23    C7      19.530601   19.842883   26.585463 C.3        1 MOL1        -0.0781
      24    H16     20.432399   20.255303   27.043118 H          1 MOL1         0.0978
      25    H17     19.178821   20.507713   25.794000 H          1 MOL1         0.0978
      26    H18     18.751666   19.729096   27.342660 H          1 MOL1         0.0978
@<TRIPOS>BOND
    1     1     2    1
    2     1     3    1
    3     1     4    1
    4     4     5    1
    5     4     6    1
    6     4     7    1
    7     7     8    1
    8     7     9    1
    9     7    10    1
   10    10    11    1
   11    10    12    1
   12    10    13    1
   13    13    14    1
   14    13    15    1
   15    13    16    1
   16    16    17    1
   17    16    18    1
   18    16    19    1
   19    19    20    1
   20    19    21    1
   21    19    22    1
   22     1    23    1
   23    23    24    1
   24    23    25    1
   25    23    26    1
@<TRIPOS>SUBSTRUCTURE
       1 MOL1            1 RESIDUE      1      MOL     
@<SCITEGIC>MOL_PROPERTY
VM2 Rank
SciTegic.value.IntegerValue
85

@<SCITEGIC>MOL_PROPERTY
Conf_Id
SciTegic.value.IntegerValue
1080

@<SCITEGIC>MOL_PROPERTY
Probability
SciTegic.value.DoubleValue
0.24

@<SCITEGIC>MOL_PROPERTY
Sum Probability
SciTegic.value.DoubleValue
95.66

@<SCITEGIC>MOL_PROPERTY
Delta G
SciTegic.value.DoubleValue
1.998

@<SCITEGIC>MOL_PROPERTY
G
SciTegic.value.DoubleValue
77.464

@<SCITEGIC>MOL_PROPERTY
E
SciTegic.value.DoubleValue
44.576

@<SCITEGIC>MOL_PROPERTY
-TS
SciTegic.value.DoubleValue
32.888

@<SCITEGIC>MOL_PROPERTY
U+W
SciTegic.value.DoubleValue
23.114

@<SCITEGIC>MOL_PROPERTY
U
SciTegic.value.DoubleValue
72.739

@<SCITEGIC>MOL_PROPERTY
W
SciTegic.value.DoubleValue
-49.625

@<SCITEGIC>MOL_PROPERTY
W(PB)
SciTegic.value.DoubleValue
-51.868

@<SCITEGIC>MOL_PROPERTY
W(SA)
SciTegic.value.DoubleValue
2.243

@<SCITEGIC>MOL_PROPERTY
Valence
SciTegic.value.DoubleValue
3.076

@<SCITEGIC>MOL_PROPERTY
Coulomb
SciTegic.value.DoubleValue
69.128

@<SCITEGIC>MOL_PROPERTY
VdW
SciTegic.value.DoubleValue
0.535

@<SCITEGIC>MOL_PROPERTY
VdW6
SciTegic.value.DoubleValue
-8.276

@<SCITEGIC>MOL_PROPERTY
VdW12
SciTegic.value.DoubleValue
8.811

@<SCITEGIC>MOL_PROPERTY
Bond
SciTegic.value.DoubleValue
0.270

@<SCITEGIC>MOL_PROPERTY
Angle
SciTegic.value.DoubleValue
1.277

@<SCITEGIC>MOL_PROPERTY
Pdih
SciTegic.value.DoubleValue
1.529

@<SCITEGIC>MOL_PROPERTY
Idih
SciTegic.value.DoubleValue
0.000

@<SCITEGIC>MOL_PROPERTY
Tether
SciTegic.value.DoubleValue
0.000

@<TRIPOS>MOLECULE
guest-s12_vm2.mol2 : vm2 ligand conformer 86
          26          25           1
SMALL
USER_CHARGES
 
@<TRIPOS>ATOM
       1    N1      20.043531   18.229491   25.499226 N.4        1 MOL1        -0.4857
       2    H1      20.529185   17.370407   25.802201 H          1 MOL1         0.3650
       3    H2      19.221127   17.903101   24.970359 H          1 MOL1         0.3650
       4    C1      20.956392   19.039180   24.592190 C.3        1 MOL1         0.0209
       5    H3      21.349138   18.359176   23.832223 H          1 MOL1         0.0967
       6    H4      21.797660   19.389892   25.195262 H          1 MOL1         0.0967
       7    C2      20.283804   20.241310   23.892004 C.3        1 MOL1        -0.1378
       8    H5      19.962344   20.970150   24.647090 H          1 MOL1         0.0993
       9    H6      21.035304   20.760107   23.283557 H          1 MOL1         0.0993
      10    C3      19.069865   19.856205   23.006164 C.3        1 MOL1        -0.1338
      11    H7      18.684848   20.763023   22.519714 H          1 MOL1         0.0993
      12    H8      18.254609   19.495733   23.647871 H          1 MOL1         0.0993
      13    C4      19.365214   18.787134   21.922191 C.3        1 MOL1        -0.1338
      14    H9      19.663624   17.842122   22.395072 H          1 MOL1         0.0993
      15    H10     18.431758   18.573759   21.383194 H          1 MOL1         0.0993
      16    C5      20.444670   19.222317   20.903061 C.3        1 MOL1        -0.1313
      17    H11     21.406439   19.373804   21.410979 H          1 MOL1         0.0993
      18    H12     20.165272   20.186432   20.455660 H          1 MOL1         0.0993
      19    C6      20.628560   18.173518   19.785503 C.3        1 MOL1        -0.2328
      20    H13     19.695624   18.023567   19.226653 H          1 MOL1         0.1004
      21    H14     20.938226   17.205255   20.199931 H          1 MOL1         0.1004
      22    H15     21.398870   18.496830   19.073400 H          1 MOL1         0.1004
      23    C7      19.615963   19.040846   26.716660 C.3        1 MOL1        -0.0781
      24    H16     19.051002   19.915222   26.387387 H          1 MOL1         0.0978
      25    H17     18.988637   18.418468   27.358624 H          1 MOL1         0.0978
      26    H18     20.504809   19.358713   27.265903 H          1 MOL1         0.0978
@<TRIPOS>BOND
    1     1     2    1
    2     1     3    1
    3     1     4    1
    4     4     5    1
    5     4     6    1
    6     4     7    1
    7     7     8    1
    8     7     9    1
    9     7    10    1
   10    10    11    1
   11    10    12    1
   12    10    13    1
   13    13    14    1
   14    13    15    1
   15    13    16    1
   16    16    17    1
   17    16    18    1
   18    16    19    1
   19    19    20    1
   20    19    21    1
   21    19    22    1
   22     1    23    1
   23    23    24    1
   24    23    25    1
   25    23    26    1
@<TRIPOS>SUBSTRUCTURE
       1 MOL1            1 RESIDUE      1      MOL     
@<SCITEGIC>MOL_PROPERTY
VM2 Rank
SciTegic.value.IntegerValue
86

@<SCITEGIC>MOL_PROPERTY
Conf_Id
SciTegic.value.IntegerValue
1332

@<SCITEGIC>MOL_PROPERTY
Probability
SciTegic.value.DoubleValue
0.23

@<SCITEGIC>MOL_PROPERTY
Sum Probability
SciTegic.value.DoubleValue
95.90

@<SCITEGIC>MOL_PROPERTY
Delta G
SciTegic.value.DoubleValue
2.011

@<SCITEGIC>MOL_PROPERTY
G
SciTegic.value.DoubleValue
77.477

@<SCITEGIC>MOL_PROPERTY
E
SciTegic.value.DoubleValue
44.551

@<SCITEGIC>MOL_PROPERTY
-TS
SciTegic.value.DoubleValue
32.926

@<SCITEGIC>MOL_PROPERTY
U+W
SciTegic.value.DoubleValue
23.090

@<SCITEGIC>MOL_PROPERTY
U
SciTegic.value.DoubleValue
72.940

@<SCITEGIC>MOL_PROPERTY
W
SciTegic.value.DoubleValue
-49.850

@<SCITEGIC>MOL_PROPERTY
W(PB)
SciTegic.value.DoubleValue
-52.094

@<SCITEGIC>MOL_PROPERTY
W(SA)
SciTegic.value.DoubleValue
2.244

@<SCITEGIC>MOL_PROPERTY
Valence
SciTegic.value.DoubleValue
2.864

@<SCITEGIC>MOL_PROPERTY
Coulomb
SciTegic.value.DoubleValue
69.814

@<SCITEGIC>MOL_PROPERTY
VdW
SciTegic.value.DoubleValue
0.261

@<SCITEGIC>MOL_PROPERTY
VdW6
SciTegic.value.DoubleValue
-8.512

@<SCITEGIC>MOL_PROPERTY
VdW12
SciTegic.value.DoubleValue
8.773

@<SCITEGIC>MOL_PROPERTY
Bond
SciTegic.value.DoubleValue
0.254

@<SCITEGIC>MOL_PROPERTY
Angle
SciTegic.value.DoubleValue
1.081

@<SCITEGIC>MOL_PROPERTY
Pdih
SciTegic.value.DoubleValue
1.529

@<SCITEGIC>MOL_PROPERTY
Idih
SciTegic.value.DoubleValue
0.000

@<SCITEGIC>MOL_PROPERTY
Tether
SciTegic.value.DoubleValue
0.000

@<TRIPOS>MOLECULE
guest-s12_vm2.mol2 : vm2 ligand conformer 87
          26          25           1
SMALL
USER_CHARGES
 
@<TRIPOS>ATOM
       1    N1      19.213632   19.498156   25.538113 N.4        1 MOL1        -0.4857
       2    H1      18.307356   19.395168   26.021642 H          1 MOL1         0.3650
       3    H2      19.026010   20.128630   24.744367 H          1 MOL1         0.3650
       4    C1      19.676172   18.143037   25.026739 C.3        1 MOL1         0.0209
       5    H3      18.840777   17.697282   24.481542 H          1 MOL1         0.0967
       6    H4      19.881716   17.513008   25.895801 H          1 MOL1         0.0967
       7    C2      20.918642   18.177414   24.107859 C.3        1 MOL1        -0.1378
       8    H5      21.786841   18.523185   24.683644 H          1 MOL1         0.0993
       9    H6      21.152960   17.150725   23.797072 H          1 MOL1         0.0993
      10    C3      20.753359   19.066449   22.849441 C.3        1 MOL1        -0.1338
      11    H7      21.699215   19.046710   22.292798 H          1 MOL1         0.0993
      12    H8      20.597372   20.111332   23.149058 H          1 MOL1         0.0993
      13    C4      19.597938   18.606253   21.924266 C.3        1 MOL1        -0.1338
      14    H9      19.773722   17.571356   21.599773 H          1 MOL1         0.0993
      15    H10     18.655766   18.596754   22.487724 H          1 MOL1         0.0993
      16    C5      19.405735   19.510562   20.682493 C.3        1 MOL1        -0.1313
      17    H11     19.216617   20.545202   21.001082 H          1 MOL1         0.0993
      18    H12     18.503066   19.184965   20.146696 H          1 MOL1         0.0993
      19    C6      20.602143   19.478032   19.704127 C.3        1 MOL1        -0.2328
      20    H13     20.832715   18.450023   19.395876 H          1 MOL1         0.1004
      21    H14     21.503408   19.913301   20.153007 H          1 MOL1         0.1004
      22    H15     20.373724   20.055866   18.799222 H          1 MOL1         0.1004
      23    C7      20.240379   20.110096   26.483962 C.3        1 MOL1        -0.0781
      24    H16     21.176682   20.270048   25.945507 H          1 MOL1         0.0978
      25    H17     19.861198   21.065397   26.853608 H          1 MOL1         0.0978
      26    H18     20.405989   19.429791   27.322128 H          1 MOL1         0.0978
@<TRIPOS>BOND
    1     1     2    1
    2     1     3    1
    3     1     4    1
    4     4     5    1
    5     4     6    1
    6     4     7    1
    7     7     8    1
    8     7     9    1
    9     7    10    1
   10    10    11    1
   11    10    12    1
   12    10    13    1
   13    13    14    1
   14    13    15    1
   15    13    16    1
   16    16    17    1
   17    16    18    1
   18    16    19    1
   19    19    20    1
   20    19    21    1
   21    19    22    1
   22     1    23    1
   23    23    24    1
   24    23    25    1
   25    23    26    1
@<TRIPOS>SUBSTRUCTURE
       1 MOL1            1 RESIDUE      1      MOL     
@<SCITEGIC>MOL_PROPERTY
VM2 Rank
SciTegic.value.IntegerValue
87

@<SCITEGIC>MOL_PROPERTY
Conf_Id
SciTegic.value.IntegerValue
1729

@<SCITEGIC>MOL_PROPERTY
Probability
SciTegic.value.DoubleValue
0.21

@<SCITEGIC>MOL_PROPERTY
Sum Probability
SciTegic.value.DoubleValue
96.11

@<SCITEGIC>MOL_PROPERTY
Delta G
SciTegic.value.DoubleValue
2.069

@<SCITEGIC>MOL_PROPERTY
G
SciTegic.value.DoubleValue
77.535

@<SCITEGIC>MOL_PROPERTY
E
SciTegic.value.DoubleValue
44.759

@<SCITEGIC>MOL_PROPERTY
-TS
SciTegic.value.DoubleValue
32.776

@<SCITEGIC>MOL_PROPERTY
U+W
SciTegic.value.DoubleValue
23.297

@<SCITEGIC>MOL_PROPERTY
U
SciTegic.value.DoubleValue
73.042

@<SCITEGIC>MOL_PROPERTY
W
SciTegic.value.DoubleValue
-49.744

@<SCITEGIC>MOL_PROPERTY
W(PB)
SciTegic.value.DoubleValue
-52.024

@<SCITEGIC>MOL_PROPERTY
W(SA)
SciTegic.value.DoubleValue
2.279

@<SCITEGIC>MOL_PROPERTY
Valence
SciTegic.value.DoubleValue
2.938

@<SCITEGIC>MOL_PROPERTY
Coulomb
SciTegic.value.DoubleValue
69.625

@<SCITEGIC>MOL_PROPERTY
VdW
SciTegic.value.DoubleValue
0.478

@<SCITEGIC>MOL_PROPERTY
VdW6
SciTegic.value.DoubleValue
-8.182

@<SCITEGIC>MOL_PROPERTY
VdW12
SciTegic.value.DoubleValue
8.660

@<SCITEGIC>MOL_PROPERTY
Bond
SciTegic.value.DoubleValue
0.253

@<SCITEGIC>MOL_PROPERTY
Angle
SciTegic.value.DoubleValue
1.038

@<SCITEGIC>MOL_PROPERTY
Pdih
SciTegic.value.DoubleValue
1.647

@<SCITEGIC>MOL_PROPERTY
Idih
SciTegic.value.DoubleValue
0.000

@<SCITEGIC>MOL_PROPERTY
Tether
SciTegic.value.DoubleValue
0.000

@<TRIPOS>MOLECULE
guest-s12_vm2.mol2 : vm2 ligand conformer 88
          26          25           1
SMALL
USER_CHARGES
 
@<TRIPOS>ATOM
       1    N1      20.624307   19.644458   25.587919 N.4        1 MOL1        -0.4857
       2    H1      20.733737   20.305658   24.804610 H          1 MOL1         0.3650
       3    H2      21.496427   19.725888   26.134288 H          1 MOL1         0.3650
       4    C1      20.486094   18.227012   25.055433 C.3        1 MOL1         0.0209
       5    H3      20.353693   17.562043   25.912602 H          1 MOL1         0.0967
       6    H4      21.431131   17.965756   24.573279 H          1 MOL1         0.0967
       7    C2      19.330317   18.012702   24.051686 C.3        1 MOL1        -0.1378
       8    H5      19.333628   16.962039   23.732804 H          1 MOL1         0.0993
       9    H6      18.371596   18.169127   24.562804 H          1 MOL1         0.0993
      10    C3      19.397562   18.925754   22.801432 C.3        1 MOL1        -0.1338
      11    H7      19.314888   19.978255   23.103574 H          1 MOL1         0.0993
      12    H8      18.517081   18.716690   22.180195 H          1 MOL1         0.0993
      13    C4      20.684528   18.718631   21.962654 C.3        1 MOL1        -0.1338
      14    H9      21.566941   18.898019   22.590692 H          1 MOL1         0.0993
      15    H10     20.747426   17.672084   21.634035 H          1 MOL1         0.0993
      16    C5      20.773929   19.652259   20.730962 C.3        1 MOL1        -0.1313
      17    H11     21.759283   19.522148   20.261865 H          1 MOL1         0.0993
      18    H12     20.724681   20.701328   21.054648 H          1 MOL1         0.0993
      19    C6      19.680791   19.382918   19.671645 C.3        1 MOL1        -0.2328
      20    H13     19.848783   20.001955   18.780863 H          1 MOL1         0.1004
      21    H14     18.680442   19.621273   20.053376 H          1 MOL1         0.1004
      22    H15     19.687510   18.331792   19.355295 H          1 MOL1         0.1004
      23    C7      19.430473   20.026267   26.455269 C.3        1 MOL1        -0.0781
      24    H16     19.349676   19.320530   27.284830 H          1 MOL1         0.0978
      25    H17     19.579100   21.036347   26.843425 H          1 MOL1         0.0978
      26    H18     18.521188   19.994771   25.851622 H          1 MOL1         0.0978
@<TRIPOS>BOND
    1     1     2    1
    2     1     3    1
    3     1     4    1
    4     4     5    1
    5     4     6    1
    6     4     7    1
    7     7     8    1
    8     7     9    1
    9     7    10    1
   10    10    11    1
   11    10    12    1
   12    10    13    1
   13    13    14    1
   14    13    15    1
   15    13    16    1
   16    16    17    1
   17    16    18    1
   18    16    19    1
   19    19    20    1
   20    19    21    1
   21    19    22    1
   22     1    23    1
   23    23    24    1
   24    23    25    1
   25    23    26    1
@<TRIPOS>SUBSTRUCTURE
       1 MOL1            1 RESIDUE      1      MOL     
@<SCITEGIC>MOL_PROPERTY
VM2 Rank
SciTegic.value.IntegerValue
88

@<SCITEGIC>MOL_PROPERTY
Conf_Id
SciTegic.value.IntegerValue
687

@<SCITEGIC>MOL_PROPERTY
Probability
SciTegic.value.DoubleValue
0.21

@<SCITEGIC>MOL_PROPERTY
Sum Probability
SciTegic.value.DoubleValue
96.32

@<SCITEGIC>MOL_PROPERTY
Delta G
SciTegic.value.DoubleValue
2.070

@<SCITEGIC>MOL_PROPERTY
G
SciTegic.value.DoubleValue
77.536

@<SCITEGIC>MOL_PROPERTY
E
SciTegic.value.DoubleValue
44.760

@<SCITEGIC>MOL_PROPERTY
-TS
SciTegic.value.DoubleValue
32.776

@<SCITEGIC>MOL_PROPERTY
U+W
SciTegic.value.DoubleValue
23.298

@<SCITEGIC>MOL_PROPERTY
U
SciTegic.value.DoubleValue
73.042

@<SCITEGIC>MOL_PROPERTY
W
SciTegic.value.DoubleValue
-49.744

@<SCITEGIC>MOL_PROPERTY
W(PB)
SciTegic.value.DoubleValue
-51.966

@<SCITEGIC>MOL_PROPERTY
W(SA)
SciTegic.value.DoubleValue
2.222

@<SCITEGIC>MOL_PROPERTY
Valence
SciTegic.value.DoubleValue
2.938

@<SCITEGIC>MOL_PROPERTY
Coulomb
SciTegic.value.DoubleValue
69.625

@<SCITEGIC>MOL_PROPERTY
VdW
SciTegic.value.DoubleValue
0.478

@<SCITEGIC>MOL_PROPERTY
VdW6
SciTegic.value.DoubleValue
-8.182

@<SCITEGIC>MOL_PROPERTY
VdW12
SciTegic.value.DoubleValue
8.660

@<SCITEGIC>MOL_PROPERTY
Bond
SciTegic.value.DoubleValue
0.253

@<SCITEGIC>MOL_PROPERTY
Angle
SciTegic.value.DoubleValue
1.038

@<SCITEGIC>MOL_PROPERTY
Pdih
SciTegic.value.DoubleValue
1.647

@<SCITEGIC>MOL_PROPERTY
Idih
SciTegic.value.DoubleValue
0.000

@<SCITEGIC>MOL_PROPERTY
Tether
SciTegic.value.DoubleValue
0.000

@<TRIPOS>MOLECULE
guest-s12_vm2.mol2 : vm2 ligand conformer 89
          26          25           1
SMALL
USER_CHARGES
 
@<TRIPOS>ATOM
       1    N1      20.414002   19.004460   26.220684 N.4        1 MOL1        -0.4857
       2    H1      21.321773   18.632562   25.902654 H          1 MOL1         0.3650
       3    H2      20.360766   18.756747   27.221418 H          1 MOL1         0.3650
       4    C1      19.274890   18.328051   25.474745 C.3        1 MOL1         0.0209
       5    H3      18.408255   18.993468   25.496990 H          1 MOL1         0.0967
       6    H4      19.018128   17.429264   26.041300 H          1 MOL1         0.0967
       7    C2      19.589786   17.903167   24.022904 C.3        1 MOL1        -0.1378
       8    H5      20.433939   17.200977   24.023918 H          1 MOL1         0.0993
       9    H6      18.725121   17.345648   23.639071 H          1 MOL1         0.0993
      10    C3      19.892951   19.084785   23.071951 C.3        1 MOL1        -0.1338
      11    H7      20.821800   19.580334   23.382959 H          1 MOL1         0.0993
      12    H8      19.088502   19.829927   23.143320 H          1 MOL1         0.0993
      13    C4      20.038679   18.619913   21.604987 C.3        1 MOL1        -0.1338
      14    H9      20.839113   17.870300   21.534905 H          1 MOL1         0.0993
      15    H10     19.111938   18.126040   21.281388 H          1 MOL1         0.0993
      16    C5      20.351767   19.798024   20.655636 C.3        1 MOL1        -0.1313
      17    H11     21.279899   20.293969   20.972792 H          1 MOL1         0.0993
      18    H12     19.552736   20.549858   20.721072 H          1 MOL1         0.0993
      19    C6      20.495984   19.330551   19.191560 C.3        1 MOL1        -0.2328
      20    H13     21.311151   18.602571   19.087898 H          1 MOL1         0.1004
      21    H14     20.717953   20.180476   18.533246 H          1 MOL1         0.1004
      22    H15     19.570511   18.860566   18.834052 H          1 MOL1         0.1004
      23    C7      20.349941   20.521048   26.074533 C.3        1 MOL1        -0.0781
      24    H16     19.395765   20.877624   26.468509 H          1 MOL1         0.0978
      25    H17     21.170568   20.968565   26.639656 H          1 MOL1         0.0978
      26    H18     20.438009   20.793999   25.022247 H          1 MOL1         0.0978
@<TRIPOS>BOND
    1     1     2    1
    2     1     3    1
    3     1     4    1
    4     4     5    1
    5     4     6    1
    6     4     7    1
    7     7     8    1
    8     7     9    1
    9     7    10    1
   10    10    11    1
   11    10    12    1
   12    10    13    1
   13    13    14    1
   14    13    15    1
   15    13    16    1
   16    16    17    1
   17    16    18    1
   18    16    19    1
   19    19    20    1
   20    19    21    1
   21    19    22    1
   22     1    23    1
   23    23    24    1
   24    23    25    1
   25    23    26    1
@<TRIPOS>SUBSTRUCTURE
       1 MOL1            1 RESIDUE      1      MOL     
@<SCITEGIC>MOL_PROPERTY
VM2 Rank
SciTegic.value.IntegerValue
89

@<SCITEGIC>MOL_PROPERTY
Conf_Id
SciTegic.value.IntegerValue
518

@<SCITEGIC>MOL_PROPERTY
Probability
SciTegic.value.DoubleValue
0.20

@<SCITEGIC>MOL_PROPERTY
Sum Probability
SciTegic.value.DoubleValue
96.52

@<SCITEGIC>MOL_PROPERTY
Delta G
SciTegic.value.DoubleValue
2.105

@<SCITEGIC>MOL_PROPERTY
G
SciTegic.value.DoubleValue
77.571

@<SCITEGIC>MOL_PROPERTY
E
SciTegic.value.DoubleValue
45.061

@<SCITEGIC>MOL_PROPERTY
-TS
SciTegic.value.DoubleValue
32.510

@<SCITEGIC>MOL_PROPERTY
U+W
SciTegic.value.DoubleValue
23.599

@<SCITEGIC>MOL_PROPERTY
U
SciTegic.value.DoubleValue
72.879

@<SCITEGIC>MOL_PROPERTY
W
SciTegic.value.DoubleValue
-49.280

@<SCITEGIC>MOL_PROPERTY
W(PB)
SciTegic.value.DoubleValue
-51.580

@<SCITEGIC>MOL_PROPERTY
W(SA)
SciTegic.value.DoubleValue
2.300

@<SCITEGIC>MOL_PROPERTY
Valence
SciTegic.value.DoubleValue
3.733

@<SCITEGIC>MOL_PROPERTY
Coulomb
SciTegic.value.DoubleValue
68.869

@<SCITEGIC>MOL_PROPERTY
VdW
SciTegic.value.DoubleValue
0.276

@<SCITEGIC>MOL_PROPERTY
VdW6
SciTegic.value.DoubleValue
-6.946

@<SCITEGIC>MOL_PROPERTY
VdW12
SciTegic.value.DoubleValue
7.222

@<SCITEGIC>MOL_PROPERTY
Bond
SciTegic.value.DoubleValue
0.187

@<SCITEGIC>MOL_PROPERTY
Angle
SciTegic.value.DoubleValue
0.835

@<SCITEGIC>MOL_PROPERTY
Pdih
SciTegic.value.DoubleValue
2.712

@<SCITEGIC>MOL_PROPERTY
Idih
SciTegic.value.DoubleValue
0.000

@<SCITEGIC>MOL_PROPERTY
Tether
SciTegic.value.DoubleValue
0.000

@<TRIPOS>MOLECULE
guest-s12_vm2.mol2 : vm2 ligand conformer 90
          26          25           1
SMALL
USER_CHARGES
 
@<TRIPOS>ATOM
       1    N1      19.505506   18.910970   26.188559 N.4        1 MOL1        -0.4857
       2    H1      19.537873   18.672043   27.192317 H          1 MOL1         0.3650
       3    H2      18.716836   18.364560   25.810489 H          1 MOL1         0.3650
       4    C1      20.807684   18.485728   25.528990 C.3        1 MOL1         0.0209
       5    H3      21.201581   17.653862   26.118546 H          1 MOL1         0.0967
       6    H4      21.517180   19.313289   25.607025 H          1 MOL1         0.0967
       7    C2      20.688093   18.016182   24.061766 C.3        1 MOL1        -0.1378
       8    H5      21.672720   17.648833   23.743388 H          1 MOL1         0.0993
       9    H6      20.006331   17.157078   24.008754 H          1 MOL1         0.0993
      10    C3      20.218383   19.118326   23.083455 C.3        1 MOL1        -0.1338
      11    H7      20.847588   20.010884   23.205555 H          1 MOL1         0.0993
      12    H8      19.188768   19.412500   23.325139 H          1 MOL1         0.0993
      13    C4      20.273174   18.644066   21.613287 C.3        1 MOL1        -0.1338
      14    H9      21.301260   18.351147   21.358901 H          1 MOL1         0.0993
      15    H10     19.648675   17.747960   21.492792 H          1 MOL1         0.0993
      16    C5      19.794447   19.740736   20.635857 C.3        1 MOL1        -0.1313
      17    H11     20.417582   20.638691   20.751469 H          1 MOL1         0.0993
      18    H12     18.765098   20.035592   20.883803 H          1 MOL1         0.0993
      19    C6      19.850809   19.264080   19.168727 C.3        1 MOL1        -0.2328
      20    H13     19.209741   18.386473   19.013698 H          1 MOL1         0.1004
      21    H14     20.875108   18.994376   18.880160 H          1 MOL1         0.1004
      22    H15     19.507407   20.055845   18.490345 H          1 MOL1         0.1004
      23    C7      19.269905   20.409912   26.036359 C.3        1 MOL1        -0.0781
      24    H16     20.101713   20.950212   26.493510 H          1 MOL1         0.0978
      25    H17     19.201967   20.666820   24.978557 H          1 MOL1         0.0978
      26    H18     18.337965   20.677136   26.539494 H          1 MOL1         0.0978
@<TRIPOS>BOND
    1     1     2    1
    2     1     3    1
    3     1     4    1
    4     4     5    1
    5     4     6    1
    6     4     7    1
    7     7     8    1
    8     7     9    1
    9     7    10    1
   10    10    11    1
   11    10    12    1
   12    10    13    1
   13    13    14    1
   14    13    15    1
   15    13    16    1
   16    16    17    1
   17    16    18    1
   18    16    19    1
   19    19    20    1
   20    19    21    1
   21    19    22    1
   22     1    23    1
   23    23    24    1
   24    23    25    1
   25    23    26    1
@<TRIPOS>SUBSTRUCTURE
       1 MOL1            1 RESIDUE      1      MOL     
@<SCITEGIC>MOL_PROPERTY
VM2 Rank
SciTegic.value.IntegerValue
90

@<SCITEGIC>MOL_PROPERTY
Conf_Id
SciTegic.value.IntegerValue
1334

@<SCITEGIC>MOL_PROPERTY
Probability
SciTegic.value.DoubleValue
0.20

@<SCITEGIC>MOL_PROPERTY
Sum Probability
SciTegic.value.DoubleValue
96.72

@<SCITEGIC>MOL_PROPERTY
Delta G
SciTegic.value.DoubleValue
2.106

@<SCITEGIC>MOL_PROPERTY
G
SciTegic.value.DoubleValue
77.572

@<SCITEGIC>MOL_PROPERTY
E
SciTegic.value.DoubleValue
45.062

@<SCITEGIC>MOL_PROPERTY
-TS
SciTegic.value.DoubleValue
32.510

@<SCITEGIC>MOL_PROPERTY
U+W
SciTegic.value.DoubleValue
23.600

@<SCITEGIC>MOL_PROPERTY
U
SciTegic.value.DoubleValue
72.879

@<SCITEGIC>MOL_PROPERTY
W
SciTegic.value.DoubleValue
-49.278

@<SCITEGIC>MOL_PROPERTY
W(PB)
SciTegic.value.DoubleValue
-51.547

@<SCITEGIC>MOL_PROPERTY
W(SA)
SciTegic.value.DoubleValue
2.268

@<SCITEGIC>MOL_PROPERTY
Valence
SciTegic.value.DoubleValue
3.733

@<SCITEGIC>MOL_PROPERTY
Coulomb
SciTegic.value.DoubleValue
68.869

@<SCITEGIC>MOL_PROPERTY
VdW
SciTegic.value.DoubleValue
0.277

@<SCITEGIC>MOL_PROPERTY
VdW6
SciTegic.value.DoubleValue
-6.946

@<SCITEGIC>MOL_PROPERTY
VdW12
SciTegic.value.DoubleValue
7.222

@<SCITEGIC>MOL_PROPERTY
Bond
SciTegic.value.DoubleValue
0.187

@<SCITEGIC>MOL_PROPERTY
Angle
SciTegic.value.DoubleValue
0.835

@<SCITEGIC>MOL_PROPERTY
Pdih
SciTegic.value.DoubleValue
2.712

@<SCITEGIC>MOL_PROPERTY
Idih
SciTegic.value.DoubleValue
0.000

@<SCITEGIC>MOL_PROPERTY
Tether
SciTegic.value.DoubleValue
0.000

@<TRIPOS>MOLECULE
guest-s12_vm2.mol2 : vm2 ligand conformer 91
          26          25           1
SMALL
USER_CHARGES
 
@<TRIPOS>ATOM
       1    N1      20.676785   18.445320   25.339578 N.4        1 MOL1        -0.4857
       2    H1      21.264719   18.489494   24.493963 H          1 MOL1         0.3650
       3    H2      20.894343   17.534205   25.773508 H          1 MOL1         0.3650
       4    C1      19.207053   18.488218   24.952312 C.3        1 MOL1         0.0209
       5    H3      18.619767   18.458958   25.873554 H          1 MOL1         0.0967
       6    H4      18.991409   17.576973   24.389155 H          1 MOL1         0.0967
       7    C2      18.786470   19.713352   24.109073 C.3        1 MOL1        -0.1378
       8    H5      17.714549   19.633040   23.885234 H          1 MOL1         0.0993
       9    H6      18.901690   20.625886   24.708115 H          1 MOL1         0.0993
      10    C3      19.575317   19.866922   22.784556 C.3        1 MOL1        -0.1338
      11    H7      20.634079   20.047304   23.009663 H          1 MOL1         0.0993
      12    H8      19.215733   20.765797   22.265116 H          1 MOL1         0.0993
      13    C4      19.427653   18.643652   21.844552 C.3        1 MOL1        -0.1338
      14    H9      19.855670   17.748679   22.315289 H          1 MOL1         0.0993
      15    H10     18.359464   18.433735   21.695492 H          1 MOL1         0.0993
      16    C5      20.085769   18.851625   20.459197 C.3        1 MOL1        -0.1313
      17    H11     19.647113   19.730847   19.966896 H          1 MOL1         0.0993
      18    H12     19.843985   17.990212   19.820929 H          1 MOL1         0.0993
      19    C6      21.622404   19.005739   20.526722 C.3        1 MOL1        -0.2328
      20    H13     21.913501   19.921590   21.055725 H          1 MOL1         0.1004
      21    H14     22.047291   19.060429   19.516074 H          1 MOL1         0.1004
      22    H15     22.083440   18.150724   21.037881 H          1 MOL1         0.1004
      23    C7      21.026548   19.575172   26.301010 C.3        1 MOL1        -0.0781
      24    H16     20.401592   19.493329   27.192914 H          1 MOL1         0.0978
      25    H17     22.079537   19.494309   26.579745 H          1 MOL1         0.0978
      26    H18     20.848959   20.534342   25.810473 H          1 MOL1         0.0978
@<TRIPOS>BOND
    1     1     2    1
    2     1     3    1
    3     1     4    1
    4     4     5    1
    5     4     6    1
    6     4     7    1
    7     7     8    1
    8     7     9    1
    9     7    10    1
   10    10    11    1
   11    10    12    1
   12    10    13    1
   13    13    14    1
   14    13    15    1
   15    13    16    1
   16    16    17    1
   17    16    18    1
   18    16    19    1
   19    19    20    1
   20    19    21    1
   21    19    22    1
   22     1    23    1
   23    23    24    1
   24    23    25    1
   25    23    26    1
@<TRIPOS>SUBSTRUCTURE
       1 MOL1            1 RESIDUE      1      MOL     
@<SCITEGIC>MOL_PROPERTY
VM2 Rank
SciTegic.value.IntegerValue
91

@<SCITEGIC>MOL_PROPERTY
Conf_Id
SciTegic.value.IntegerValue
157

@<SCITEGIC>MOL_PROPERTY
Probability
SciTegic.value.DoubleValue
0.19

@<SCITEGIC>MOL_PROPERTY
Sum Probability
SciTegic.value.DoubleValue
96.91

@<SCITEGIC>MOL_PROPERTY
Delta G
SciTegic.value.DoubleValue
2.141

@<SCITEGIC>MOL_PROPERTY
G
SciTegic.value.DoubleValue
77.607

@<SCITEGIC>MOL_PROPERTY
E
SciTegic.value.DoubleValue
44.799

@<SCITEGIC>MOL_PROPERTY
-TS
SciTegic.value.DoubleValue
32.808

@<SCITEGIC>MOL_PROPERTY
U+W
SciTegic.value.DoubleValue
23.337

@<SCITEGIC>MOL_PROPERTY
U
SciTegic.value.DoubleValue
73.121

@<SCITEGIC>MOL_PROPERTY
W
SciTegic.value.DoubleValue
-49.784

@<SCITEGIC>MOL_PROPERTY
W(PB)
SciTegic.value.DoubleValue
-52.011

@<SCITEGIC>MOL_PROPERTY
W(SA)
SciTegic.value.DoubleValue
2.227

@<SCITEGIC>MOL_PROPERTY
Valence
SciTegic.value.DoubleValue
2.869

@<SCITEGIC>MOL_PROPERTY
Coulomb
SciTegic.value.DoubleValue
69.886

@<SCITEGIC>MOL_PROPERTY
VdW
SciTegic.value.DoubleValue
0.367

@<SCITEGIC>MOL_PROPERTY
VdW6
SciTegic.value.DoubleValue
-8.311

@<SCITEGIC>MOL_PROPERTY
VdW12
SciTegic.value.DoubleValue
8.678

@<SCITEGIC>MOL_PROPERTY
Bond
SciTegic.value.DoubleValue
0.246

@<SCITEGIC>MOL_PROPERTY
Angle
SciTegic.value.DoubleValue
0.961

@<SCITEGIC>MOL_PROPERTY
Pdih
SciTegic.value.DoubleValue
1.661

@<SCITEGIC>MOL_PROPERTY
Idih
SciTegic.value.DoubleValue
0.000

@<SCITEGIC>MOL_PROPERTY
Tether
SciTegic.value.DoubleValue
0.000

@<TRIPOS>MOLECULE
guest-s12_vm2.mol2 : vm2 ligand conformer 92
          26          25           1
SMALL
USER_CHARGES
 
@<TRIPOS>ATOM
       1    N1      20.725192   18.630209   25.843550 N.4        1 MOL1        -0.4857
       2    H1      21.603702   18.925437   26.298427 H          1 MOL1         0.3650
       3    H2      20.892841   17.656478   25.546960 H          1 MOL1         0.3650
       4    C1      20.458762   19.510083   24.633651 C.3        1 MOL1         0.0209
       5    H3      21.383287   19.547059   24.052459 H          1 MOL1         0.0967
       6    H4      20.242245   20.519550   24.991921 H          1 MOL1         0.0967
       7    C2      19.312767   19.019128   23.723765 C.3        1 MOL1        -0.1378
       8    H5      19.511665   17.988828   23.402932 H          1 MOL1         0.0993
       9    H6      18.377941   18.987372   24.297788 H          1 MOL1         0.0993
      10    C3      19.101735   19.927652   22.487015 C.3        1 MOL1        -0.1338
      11    H7      18.786611   20.923424   22.828285 H          1 MOL1         0.0993
      12    H8      18.262085   19.538886   21.895546 H          1 MOL1         0.0993
      13    C4      20.347814   20.088588   21.574612 C.3        1 MOL1        -0.1338
      14    H9      20.079207   20.731619   20.725164 H          1 MOL1         0.0993
      15    H10     21.131249   20.632825   22.118923 H          1 MOL1         0.0993
      16    C5      20.942333   18.764591   21.030433 C.3        1 MOL1        -0.1313
      17    H11     21.316638   18.147520   21.858210 H          1 MOL1         0.0993
      18    H12     21.819615   19.002531   20.412779 H          1 MOL1         0.0993
      19    C6      19.942893   17.947328   20.180688 C.3        1 MOL1        -0.2328
      20    H13     19.097922   17.592315   20.783605 H          1 MOL1         0.1004
      21    H14     20.435030   17.065799   19.749942 H          1 MOL1         0.1004
      22    H15     19.545732   18.548271   19.352403 H          1 MOL1         0.1004
      23    C7      19.576505   18.702421   26.843285 C.3        1 MOL1        -0.0781
      24    H16     19.434443   19.740351   27.152066 H          1 MOL1         0.0978
      25    H17     18.664682   18.326701   26.374889 H          1 MOL1         0.0978
      26    H18     19.821356   18.089215   27.713400 H          1 MOL1         0.0978
@<TRIPOS>BOND
    1     1     2    1
    2     1     3    1
    3     1     4    1
    4     4     5    1
    5     4     6    1
    6     4     7    1
    7     7     8    1
    8     7     9    1
    9     7    10    1
   10    10    11    1
   11    10    12    1
   12    10    13    1
   13    13    14    1
   14    13    15    1
   15    13    16    1
   16    16    17    1
   17    16    18    1
   18    16    19    1
   19    19    20    1
   20    19    21    1
   21    19    22    1
   22     1    23    1
   23    23    24    1
   24    23    25    1
   25    23    26    1
@<TRIPOS>SUBSTRUCTURE
       1 MOL1            1 RESIDUE      1      MOL     
@<SCITEGIC>MOL_PROPERTY
VM2 Rank
SciTegic.value.IntegerValue
92

@<SCITEGIC>MOL_PROPERTY
Conf_Id
SciTegic.value.IntegerValue
496

@<SCITEGIC>MOL_PROPERTY
Probability
SciTegic.value.DoubleValue
0.19

@<SCITEGIC>MOL_PROPERTY
Sum Probability
SciTegic.value.DoubleValue
97.10

@<SCITEGIC>MOL_PROPERTY
Delta G
SciTegic.value.DoubleValue
2.142

@<SCITEGIC>MOL_PROPERTY
G
SciTegic.value.DoubleValue
77.608

@<SCITEGIC>MOL_PROPERTY
E
SciTegic.value.DoubleValue
44.604

@<SCITEGIC>MOL_PROPERTY
-TS
SciTegic.value.DoubleValue
33.005

@<SCITEGIC>MOL_PROPERTY
U+W
SciTegic.value.DoubleValue
23.142

@<SCITEGIC>MOL_PROPERTY
U
SciTegic.value.DoubleValue
72.963

@<SCITEGIC>MOL_PROPERTY
W
SciTegic.value.DoubleValue
-49.821

@<SCITEGIC>MOL_PROPERTY
W(PB)
SciTegic.value.DoubleValue
-52.039

@<SCITEGIC>MOL_PROPERTY
W(SA)
SciTegic.value.DoubleValue
2.218

@<SCITEGIC>MOL_PROPERTY
Valence
SciTegic.value.DoubleValue
3.204

@<SCITEGIC>MOL_PROPERTY
Coulomb
SciTegic.value.DoubleValue
69.346

@<SCITEGIC>MOL_PROPERTY
VdW
SciTegic.value.DoubleValue
0.413

@<SCITEGIC>MOL_PROPERTY
VdW6
SciTegic.value.DoubleValue
-8.434

@<SCITEGIC>MOL_PROPERTY
VdW12
SciTegic.value.DoubleValue
8.847

@<SCITEGIC>MOL_PROPERTY
Bond
SciTegic.value.DoubleValue
0.271

@<SCITEGIC>MOL_PROPERTY
Angle
SciTegic.value.DoubleValue
1.305

@<SCITEGIC>MOL_PROPERTY
Pdih
SciTegic.value.DoubleValue
1.627

@<SCITEGIC>MOL_PROPERTY
Idih
SciTegic.value.DoubleValue
0.000

@<SCITEGIC>MOL_PROPERTY
Tether
SciTegic.value.DoubleValue
0.000

@<TRIPOS>MOLECULE
guest-s12_vm2.mol2 : vm2 ligand conformer 93
          26          25           1
SMALL
USER_CHARGES
 
@<TRIPOS>ATOM
       1    N1      19.300456   18.487470   25.792738 N.4        1 MOL1        -0.4857
       2    H1      19.350133   17.501997   25.491744 H          1 MOL1         0.3650
       3    H2      18.351175   18.599643   26.182781 H          1 MOL1         0.3650
       4    C1      19.471656   19.411407   24.598563 C.3        1 MOL1         0.0209
       5    H3      19.458228   20.441147   24.964234 H          1 MOL1         0.0967
       6    H4      18.601280   19.268731   23.953593 H          1 MOL1         0.0967
       7    C2      20.753218   19.163730   23.774859 C.3        1 MOL1        -0.1378
       8    H5      21.633138   19.313931   24.413289 H          1 MOL1         0.0993
       9    H6      20.785536   18.116708   23.448190 H          1 MOL1         0.0993
      10    C3      20.866237   20.104638   22.549534 C.3        1 MOL1        -0.1338
      11    H7      21.805658   19.894108   22.021186 H          1 MOL1         0.0993
      12    H8      20.953031   21.140715   22.904978 H          1 MOL1         0.0993
      13    C4      19.680119   20.021760   21.550858 C.3        1 MOL1        -0.1338
      14    H9      18.768186   20.396298   22.034942 H          1 MOL1         0.0993
      15    H10     19.874961   20.711031   20.717706 H          1 MOL1         0.0993
      16    C5      19.399298   18.609973   20.975924 C.3        1 MOL1        -0.1313
      17    H11     18.537857   18.673641   20.296511 H          1 MOL1         0.0993
      18    H12     19.097419   17.925379   21.779849 H          1 MOL1         0.0993
      19    C6      20.597950   18.012639   20.204373 C.3        1 MOL1        -0.2328
      20    H13     20.925396   18.685950   19.401656 H          1 MOL1         0.1004
      21    H14     20.321630   17.054045   19.746577 H          1 MOL1         0.1004
      22    H15     21.452026   17.827927   20.867662 H          1 MOL1         0.1004
      23    C7      20.339066   18.778383   26.870151 C.3        1 MOL1        -0.0781
      24    H16     20.250755   19.821601   27.181151 H          1 MOL1         0.0978
      25    H17     20.160062   18.122486   27.725035 H          1 MOL1         0.0978
      26    H18     21.337805   18.594087   26.469479 H          1 MOL1         0.0978
@<TRIPOS>BOND
    1     1     2    1
    2     1     3    1
    3     1     4    1
    4     4     5    1
    5     4     6    1
    6     4     7    1
    7     7     8    1
    8     7     9    1
    9     7    10    1
   10    10    11    1
   11    10    12    1
   12    10    13    1
   13    13    14    1
   14    13    15    1
   15    13    16    1
   16    16    17    1
   17    16    18    1
   18    16    19    1
   19    19    20    1
   20    19    21    1
   21    19    22    1
   22     1    23    1
   23    23    24    1
   24    23    25    1
   25    23    26    1
@<TRIPOS>SUBSTRUCTURE
       1 MOL1            1 RESIDUE      1      MOL     
@<SCITEGIC>MOL_PROPERTY
VM2 Rank
SciTegic.value.IntegerValue
93

@<SCITEGIC>MOL_PROPERTY
Conf_Id
SciTegic.value.IntegerValue
1819

@<SCITEGIC>MOL_PROPERTY
Probability
SciTegic.value.DoubleValue
0.18

@<SCITEGIC>MOL_PROPERTY
Sum Probability
SciTegic.value.DoubleValue
97.28

@<SCITEGIC>MOL_PROPERTY
Delta G
SciTegic.value.DoubleValue
2.160

@<SCITEGIC>MOL_PROPERTY
G
SciTegic.value.DoubleValue
77.626

@<SCITEGIC>MOL_PROPERTY
E
SciTegic.value.DoubleValue
44.621

@<SCITEGIC>MOL_PROPERTY
-TS
SciTegic.value.DoubleValue
33.005

@<SCITEGIC>MOL_PROPERTY
U+W
SciTegic.value.DoubleValue
23.159

@<SCITEGIC>MOL_PROPERTY
U
SciTegic.value.DoubleValue
72.964

@<SCITEGIC>MOL_PROPERTY
W
SciTegic.value.DoubleValue
-49.804

@<SCITEGIC>MOL_PROPERTY
W(PB)
SciTegic.value.DoubleValue
-52.051

@<SCITEGIC>MOL_PROPERTY
W(SA)
SciTegic.value.DoubleValue
2.247

@<SCITEGIC>MOL_PROPERTY
Valence
SciTegic.value.DoubleValue
3.204

@<SCITEGIC>MOL_PROPERTY
Coulomb
SciTegic.value.DoubleValue
69.346

@<SCITEGIC>MOL_PROPERTY
VdW
SciTegic.value.DoubleValue
0.413

@<SCITEGIC>MOL_PROPERTY
VdW6
SciTegic.value.DoubleValue
-8.435

@<SCITEGIC>MOL_PROPERTY
VdW12
SciTegic.value.DoubleValue
8.848

@<SCITEGIC>MOL_PROPERTY
Bond
SciTegic.value.DoubleValue
0.271

@<SCITEGIC>MOL_PROPERTY
Angle
SciTegic.value.DoubleValue
1.306

@<SCITEGIC>MOL_PROPERTY
Pdih
SciTegic.value.DoubleValue
1.627

@<SCITEGIC>MOL_PROPERTY
Idih
SciTegic.value.DoubleValue
0.000

@<SCITEGIC>MOL_PROPERTY
Tether
SciTegic.value.DoubleValue
0.000

@<TRIPOS>MOLECULE
guest-s12_vm2.mol2 : vm2 ligand conformer 94
          26          25           1
SMALL
USER_CHARGES
 
@<TRIPOS>ATOM
       1    N1      19.422227   18.317781   25.295140 N.4        1 MOL1        -0.4857
       2    H1      19.362383   17.378436   25.719177 H          1 MOL1         0.3650
       3    H2      18.898067   18.248991   24.410149 H          1 MOL1         0.3650
       4    C1      20.876779   18.657941   25.011431 C.3        1 MOL1         0.0209
       5    H3      21.310041   17.812682   24.471211 H          1 MOL1         0.0967
       6    H4      21.392001   18.740698   25.971716 H          1 MOL1         0.0967
       7    C2      21.100539   19.948616   24.191077 C.3        1 MOL1        -0.1378
       8    H5      20.762550   20.815049   24.774089 H          1 MOL1         0.0993
       9    H6      22.179719   20.087019   24.043483 H          1 MOL1         0.0993
      10    C3      20.391714   19.949964   22.813478 C.3        1 MOL1        -0.1338
      11    H7      20.598726   20.906490   22.314181 H          1 MOL1         0.0993
      12    H8      19.305190   19.912173   22.962541 H          1 MOL1         0.0993
      13    C4      20.847818   18.788159   21.894794 C.3        1 MOL1        -0.1338
      14    H9      21.944158   18.798450   21.822371 H          1 MOL1         0.0993
      15    H10     20.576676   17.822036   22.340725 H          1 MOL1         0.0993
      16    C5      20.259944   18.869449   20.465326 C.3        1 MOL1        -0.1313
      17    H11     20.714179   18.078920   19.851639 H          1 MOL1         0.0993
      18    H12     20.546091   19.822471   19.998766 H          1 MOL1         0.0993
      19    C6      18.722848   18.710743   20.423996 C.3        1 MOL1        -0.2328
      20    H13     18.408647   17.776803   20.907652 H          1 MOL1         0.1004
      21    H14     18.367470   18.686074   19.385714 H          1 MOL1         0.1004
      22    H15     18.217119   19.545474   20.924825 H          1 MOL1         0.1004
      23    C7      18.786130   19.347348   26.221758 C.3        1 MOL1        -0.0781
      24    H16     18.801101   20.326116   25.738063 H          1 MOL1         0.0978
      25    H17     17.754046   19.054453   26.426775 H          1 MOL1         0.0978
      26    H18     19.350887   19.386448   27.155718 H          1 MOL1         0.0978
@<TRIPOS>BOND
    1     1     2    1
    2     1     3    1
    3     1     4    1
    4     4     5    1
    5     4     6    1
    6     4     7    1
    7     7     8    1
    8     7     9    1
    9     7    10    1
   10    10    11    1
   11    10    12    1
   12    10    13    1
   13    13    14    1
   14    13    15    1
   15    13    16    1
   16    16    17    1
   17    16    18    1
   18    16    19    1
   19    19    20    1
   20    19    21    1
   21    19    22    1
   22     1    23    1
   23    23    24    1
   24    23    25    1
   25    23    26    1
@<TRIPOS>SUBSTRUCTURE
       1 MOL1            1 RESIDUE      1      MOL     
@<SCITEGIC>MOL_PROPERTY
VM2 Rank
SciTegic.value.IntegerValue
94

@<SCITEGIC>MOL_PROPERTY
Conf_Id
SciTegic.value.IntegerValue
567

@<SCITEGIC>MOL_PROPERTY
Probability
SciTegic.value.DoubleValue
0.18

@<SCITEGIC>MOL_PROPERTY
Sum Probability
SciTegic.value.DoubleValue
97.46

@<SCITEGIC>MOL_PROPERTY
Delta G
SciTegic.value.DoubleValue
2.172

@<SCITEGIC>MOL_PROPERTY
G
SciTegic.value.DoubleValue
77.638

@<SCITEGIC>MOL_PROPERTY
E
SciTegic.value.DoubleValue
44.830

@<SCITEGIC>MOL_PROPERTY
-TS
SciTegic.value.DoubleValue
32.808

@<SCITEGIC>MOL_PROPERTY
U+W
SciTegic.value.DoubleValue
23.368

@<SCITEGIC>MOL_PROPERTY
U
SciTegic.value.DoubleValue
73.121

@<SCITEGIC>MOL_PROPERTY
W
SciTegic.value.DoubleValue
-49.753

@<SCITEGIC>MOL_PROPERTY
W(PB)
SciTegic.value.DoubleValue
-51.988

@<SCITEGIC>MOL_PROPERTY
W(SA)
SciTegic.value.DoubleValue
2.234

@<SCITEGIC>MOL_PROPERTY
Valence
SciTegic.value.DoubleValue
2.869

@<SCITEGIC>MOL_PROPERTY
Coulomb
SciTegic.value.DoubleValue
69.886

@<SCITEGIC>MOL_PROPERTY
VdW
SciTegic.value.DoubleValue
0.367

@<SCITEGIC>MOL_PROPERTY
VdW6
SciTegic.value.DoubleValue
-8.311

@<SCITEGIC>MOL_PROPERTY
VdW12
SciTegic.value.DoubleValue
8.678

@<SCITEGIC>MOL_PROPERTY
Bond
SciTegic.value.DoubleValue
0.246

@<SCITEGIC>MOL_PROPERTY
Angle
SciTegic.value.DoubleValue
0.961

@<SCITEGIC>MOL_PROPERTY
Pdih
SciTegic.value.DoubleValue
1.662

@<SCITEGIC>MOL_PROPERTY
Idih
SciTegic.value.DoubleValue
0.000

@<SCITEGIC>MOL_PROPERTY
Tether
SciTegic.value.DoubleValue
0.000

@<TRIPOS>MOLECULE
guest-s12_vm2.mol2 : vm2 ligand conformer 95
          26          25           1
SMALL
USER_CHARGES
 
@<TRIPOS>ATOM
       1    N1      20.506954   18.911342   26.197745 N.4        1 MOL1        -0.4857
       2    H1      21.467508   18.578318   26.023067 H          1 MOL1         0.3650
       3    H2      20.325948   18.681015   27.187664 H          1 MOL1         0.3650
       4    C1      19.518240   18.151303   25.323937 C.3        1 MOL1         0.0209
       5    H3      18.517194   18.551432   25.502830 H          1 MOL1         0.0967
       6    H4      19.530530   17.118703   25.682229 H          1 MOL1         0.0967
       7    C2      19.823819   18.133505   23.809115 C.3        1 MOL1        -0.1378
       8    H5      20.908916   18.088626   23.653486 H          1 MOL1         0.0993
       9    H6      19.412566   17.202901   23.396259 H          1 MOL1         0.0993
      10    C3      19.199722   19.325841   23.040059 C.3        1 MOL1        -0.1338
      11    H7      19.657642   20.270522   23.355098 H          1 MOL1         0.0993
      12    H8      18.134766   19.398744   23.300613 H          1 MOL1         0.0993
      13    C4      19.320096   19.196095   21.501540 C.3        1 MOL1        -0.1338
      14    H9      18.837891   18.265951   21.170457 H          1 MOL1         0.0993
      15    H10     18.755796   20.016849   21.037473 H          1 MOL1         0.0993
      16    C5      20.779981   19.237783   20.990694 C.3        1 MOL1        -0.1313
      17    H11     21.344040   18.381499   21.383628 H          1 MOL1         0.0993
      18    H12     21.277581   20.144494   21.362240 H          1 MOL1         0.0993
      19    C6      20.844588   19.214617   19.448540 C.3        1 MOL1        -0.2328
      20    H13     20.380933   18.303792   19.047766 H          1 MOL1         0.1004
      21    H14     21.886383   19.241879   19.103673 H          1 MOL1         0.1004
      22    H15     20.325022   20.080551   19.017969 H          1 MOL1         0.1004
      23    C7      20.414599   20.419514   26.005370 C.3        1 MOL1        -0.0781
      24    H16     19.379004   20.737804   26.143197 H          1 MOL1         0.0978
      25    H17     21.053088   20.911526   26.742474 H          1 MOL1         0.0978
      26    H18     20.756408   20.676785   25.001942 H          1 MOL1         0.0978
@<TRIPOS>BOND
    1     1     2    1
    2     1     3    1
    3     1     4    1
    4     4     5    1
    5     4     6    1
    6     4     7    1
    7     7     8    1
    8     7     9    1
    9     7    10    1
   10    10    11    1
   11    10    12    1
   12    10    13    1
   13    13    14    1
   14    13    15    1
   15    13    16    1
   16    16    17    1
   17    16    18    1
   18    16    19    1
   19    19    20    1
   20    19    21    1
   21    19    22    1
   22     1    23    1
   23    23    24    1
   24    23    25    1
   25    23    26    1
@<TRIPOS>SUBSTRUCTURE
       1 MOL1            1 RESIDUE      1      MOL     
@<SCITEGIC>MOL_PROPERTY
VM2 Rank
SciTegic.value.IntegerValue
95

@<SCITEGIC>MOL_PROPERTY
Conf_Id
SciTegic.value.IntegerValue
1351

@<SCITEGIC>MOL_PROPERTY
Probability
SciTegic.value.DoubleValue
0.16

@<SCITEGIC>MOL_PROPERTY
Sum Probability
SciTegic.value.DoubleValue
97.62

@<SCITEGIC>MOL_PROPERTY
Delta G
SciTegic.value.DoubleValue
2.243

@<SCITEGIC>MOL_PROPERTY
G
SciTegic.value.DoubleValue
77.709

@<SCITEGIC>MOL_PROPERTY
E
SciTegic.value.DoubleValue
45.732

@<SCITEGIC>MOL_PROPERTY
-TS
SciTegic.value.DoubleValue
31.978

@<SCITEGIC>MOL_PROPERTY
U+W
SciTegic.value.DoubleValue
24.270

@<SCITEGIC>MOL_PROPERTY
U
SciTegic.value.DoubleValue
73.883

@<SCITEGIC>MOL_PROPERTY
W
SciTegic.value.DoubleValue
-49.613

@<SCITEGIC>MOL_PROPERTY
W(PB)
SciTegic.value.DoubleValue
-51.836

@<SCITEGIC>MOL_PROPERTY
W(SA)
SciTegic.value.DoubleValue
2.223

@<SCITEGIC>MOL_PROPERTY
Valence
SciTegic.value.DoubleValue
4.358

@<SCITEGIC>MOL_PROPERTY
Coulomb
SciTegic.value.DoubleValue
69.048

@<SCITEGIC>MOL_PROPERTY
VdW
SciTegic.value.DoubleValue
0.477

@<SCITEGIC>MOL_PROPERTY
VdW6
SciTegic.value.DoubleValue
-7.513

@<SCITEGIC>MOL_PROPERTY
VdW12
SciTegic.value.DoubleValue
7.990

@<SCITEGIC>MOL_PROPERTY
Bond
SciTegic.value.DoubleValue
0.237

@<SCITEGIC>MOL_PROPERTY
Angle
SciTegic.value.DoubleValue
1.266

@<SCITEGIC>MOL_PROPERTY
Pdih
SciTegic.value.DoubleValue
2.854

@<SCITEGIC>MOL_PROPERTY
Idih
SciTegic.value.DoubleValue
0.000

@<SCITEGIC>MOL_PROPERTY
Tether
SciTegic.value.DoubleValue
0.000

@<TRIPOS>MOLECULE
guest-s12_vm2.mol2 : vm2 ligand conformer 96
          26          25           1
SMALL
USER_CHARGES
 
@<TRIPOS>ATOM
       1    N1      19.681401   18.940601   25.672073 N.4        1 MOL1        -0.4857
       2    H1      19.887681   18.047182   26.145137 H          1 MOL1         0.3650
       3    H2      18.775934   18.800674   25.199329 H          1 MOL1         0.3650
       4    C1      20.756916   19.249202   24.649146 C.3        1 MOL1         0.0209
       5    H3      21.700585   19.371129   25.186868 H          1 MOL1         0.0967
       6    H4      20.508757   20.202636   24.176688 H          1 MOL1         0.0967
       7    C2      20.918715   18.160689   23.568539 C.3        1 MOL1        -0.1378
       8    H5      21.760779   18.430647   22.918501 H          1 MOL1         0.0993
       9    H6      21.202323   17.215207   24.049425 H          1 MOL1         0.0993
      10    C3      19.647904   17.935696   22.707723 C.3        1 MOL1        -0.1338
      11    H7      18.856258   17.505586   23.335642 H          1 MOL1         0.0993
      12    H8      19.862517   17.171575   21.948790 H          1 MOL1         0.0993
      13    C4      19.096443   19.211426   22.015342 C.3        1 MOL1        -0.1338
      14    H9      18.211298   18.935843   21.425616 H          1 MOL1         0.0993
      15    H10     18.735308   19.914719   22.777633 H          1 MOL1         0.0993
      16    C5      20.102125   19.946470   21.092966 C.3        1 MOL1        -0.1313
      17    H11     20.952139   20.320674   21.679071 H          1 MOL1         0.0993
      18    H12     19.609369   20.836117   20.676499 H          1 MOL1         0.0993
      19    C6      20.617203   19.072122   19.927180 C.3        1 MOL1        -0.2328
      20    H13     19.783575   18.675144   19.333557 H          1 MOL1         0.1004
      21    H14     21.213373   18.226201   20.291159 H          1 MOL1         0.1004
      22    H15     21.255559   19.662019   19.256841 H          1 MOL1         0.1004
      23    C7      19.587293   20.073795   26.684031 C.3        1 MOL1        -0.0781
      24    H16     19.337440   21.000684   26.163118 H          1 MOL1         0.0978
      25    H17     18.808877   19.839030   27.413447 H          1 MOL1         0.0978
      26    H18     20.548120   20.182078   27.191961 H          1 MOL1         0.0978
@<TRIPOS>BOND
    1     1     2    1
    2     1     3    1
    3     1     4    1
    4     4     5    1
    5     4     6    1
    6     4     7    1
    7     7     8    1
    8     7     9    1
    9     7    10    1
   10    10    11    1
   11    10    12    1
   12    10    13    1
   13    13    14    1
   14    13    15    1
   15    13    16    1
   16    16    17    1
   17    16    18    1
   18    16    19    1
   19    19    20    1
   20    19    21    1
   21    19    22    1
   22     1    23    1
   23    23    24    1
   24    23    25    1
   25    23    26    1
@<TRIPOS>SUBSTRUCTURE
       1 MOL1            1 RESIDUE      1      MOL     
@<SCITEGIC>MOL_PROPERTY
VM2 Rank
SciTegic.value.IntegerValue
96

@<SCITEGIC>MOL_PROPERTY
Conf_Id
SciTegic.value.IntegerValue
1319

@<SCITEGIC>MOL_PROPERTY
Probability
SciTegic.value.DoubleValue
0.14

@<SCITEGIC>MOL_PROPERTY
Sum Probability
SciTegic.value.DoubleValue
97.76

@<SCITEGIC>MOL_PROPERTY
Delta G
SciTegic.value.DoubleValue
2.328

@<SCITEGIC>MOL_PROPERTY
G
SciTegic.value.DoubleValue
77.794

@<SCITEGIC>MOL_PROPERTY
E
SciTegic.value.DoubleValue
44.774

@<SCITEGIC>MOL_PROPERTY
-TS
SciTegic.value.DoubleValue
33.021

@<SCITEGIC>MOL_PROPERTY
U+W
SciTegic.value.DoubleValue
23.312

@<SCITEGIC>MOL_PROPERTY
U
SciTegic.value.DoubleValue
72.853

@<SCITEGIC>MOL_PROPERTY
W
SciTegic.value.DoubleValue
-49.541

@<SCITEGIC>MOL_PROPERTY
W(PB)
SciTegic.value.DoubleValue
-51.774

@<SCITEGIC>MOL_PROPERTY
W(SA)
SciTegic.value.DoubleValue
2.233

@<SCITEGIC>MOL_PROPERTY
Valence
SciTegic.value.DoubleValue
3.035

@<SCITEGIC>MOL_PROPERTY
Coulomb
SciTegic.value.DoubleValue
69.793

@<SCITEGIC>MOL_PROPERTY
VdW
SciTegic.value.DoubleValue
0.025

@<SCITEGIC>MOL_PROPERTY
VdW6
SciTegic.value.DoubleValue
-8.577

@<SCITEGIC>MOL_PROPERTY
VdW12
SciTegic.value.DoubleValue
8.602

@<SCITEGIC>MOL_PROPERTY
Bond
SciTegic.value.DoubleValue
0.254

@<SCITEGIC>MOL_PROPERTY
Angle
SciTegic.value.DoubleValue
1.267

@<SCITEGIC>MOL_PROPERTY
Pdih
SciTegic.value.DoubleValue
1.514

@<SCITEGIC>MOL_PROPERTY
Idih
SciTegic.value.DoubleValue
0.000

@<SCITEGIC>MOL_PROPERTY
Tether
SciTegic.value.DoubleValue
0.000

@<TRIPOS>MOLECULE
guest-s12_vm2.mol2 : vm2 ligand conformer 97
          26          25           1
SMALL
USER_CHARGES
 
@<TRIPOS>ATOM
       1    N1      20.272341   19.001545   25.692950 N.4        1 MOL1        -0.4857
       2    H1      21.218135   19.052443   25.285740 H          1 MOL1         0.3650
       3    H2      20.219847   18.081469   26.156893 H          1 MOL1         0.3650
       4    C1      19.230774   19.091855   24.595074 C.3        1 MOL1         0.0209
       5    H3      19.311895   20.079217   24.134237 H          1 MOL1         0.0967
       6    H4      18.246795   19.015077   25.064555 H          1 MOL1         0.0967
       7    C2      19.370179   18.001001   23.513706 C.3        1 MOL1        -0.1378
       8    H5      19.252218   17.014135   23.980397 H          1 MOL1         0.0993
       9    H6      18.538373   18.098391   22.804402 H          1 MOL1         0.0993
      10    C3      20.717233   18.045860   22.745578 C.3        1 MOL1        -0.1338
      11    H7      20.716445   17.259548   21.979007 H          1 MOL1         0.0993
      12    H8      21.533975   17.781523   23.430442 H          1 MOL1         0.0993
      13    C4      21.044301   19.412156   22.084328 C.3        1 MOL1        -0.1338
      14    H9      21.200387   20.168727   22.864946 H          1 MOL1         0.0993
      15    H10     22.006050   19.326941   21.559942 H          1 MOL1         0.0993
      16    C5      19.976983   19.933590   21.088636 C.3        1 MOL1        -0.1313
      17    H11     20.306046   20.907970   20.701303 H          1 MOL1         0.0993
      18    H12     19.029699   20.122506   21.611163 H          1 MOL1         0.0993
      19    C6      19.733648   18.981138   19.895963 C.3        1 MOL1        -0.2328
      20    H13     20.670081   18.766697   19.364904 H          1 MOL1         0.1004
      21    H14     19.036915   19.433436   19.178454 H          1 MOL1         0.1004
      22    H15     19.298426   18.028854   20.223404 H          1 MOL1         0.1004
      23    C7      20.062541   20.122855   26.700765 C.3        1 MOL1        -0.0781
      24    H16     20.819447   20.046367   27.484562 H          1 MOL1         0.0978
      25    H17     20.154170   21.084919   26.191906 H          1 MOL1         0.0978
      26    H18     19.066655   20.029478   27.139399 H          1 MOL1         0.0978
@<TRIPOS>BOND
    1     1     2    1
    2     1     3    1
    3     1     4    1
    4     4     5    1
    5     4     6    1
    6     4     7    1
    7     7     8    1
    8     7     9    1
    9     7    10    1
   10    10    11    1
   11    10    12    1
   12    10    13    1
   13    13    14    1
   14    13    15    1
   15    13    16    1
   16    16    17    1
   17    16    18    1
   18    16    19    1
   19    19    20    1
   20    19    21    1
   21    19    22    1
   22     1    23    1
   23    23    24    1
   24    23    25    1
   25    23    26    1
@<TRIPOS>SUBSTRUCTURE
       1 MOL1            1 RESIDUE      1      MOL     
@<SCITEGIC>MOL_PROPERTY
VM2 Rank
SciTegic.value.IntegerValue
97

@<SCITEGIC>MOL_PROPERTY
Conf_Id
SciTegic.value.IntegerValue
1508

@<SCITEGIC>MOL_PROPERTY
Probability
SciTegic.value.DoubleValue
0.12

@<SCITEGIC>MOL_PROPERTY
Sum Probability
SciTegic.value.DoubleValue
97.87

@<SCITEGIC>MOL_PROPERTY
Delta G
SciTegic.value.DoubleValue
2.422

@<SCITEGIC>MOL_PROPERTY
G
SciTegic.value.DoubleValue
77.888

@<SCITEGIC>MOL_PROPERTY
E
SciTegic.value.DoubleValue
44.867

@<SCITEGIC>MOL_PROPERTY
-TS
SciTegic.value.DoubleValue
33.021

@<SCITEGIC>MOL_PROPERTY
U+W
SciTegic.value.DoubleValue
23.405

@<SCITEGIC>MOL_PROPERTY
U
SciTegic.value.DoubleValue
72.853

@<SCITEGIC>MOL_PROPERTY
W
SciTegic.value.DoubleValue
-49.448

@<SCITEGIC>MOL_PROPERTY
W(PB)
SciTegic.value.DoubleValue
-51.678

@<SCITEGIC>MOL_PROPERTY
W(SA)
SciTegic.value.DoubleValue
2.230

@<SCITEGIC>MOL_PROPERTY
Valence
SciTegic.value.DoubleValue
3.035

@<SCITEGIC>MOL_PROPERTY
Coulomb
SciTegic.value.DoubleValue
69.793

@<SCITEGIC>MOL_PROPERTY
VdW
SciTegic.value.DoubleValue
0.025

@<SCITEGIC>MOL_PROPERTY
VdW6
SciTegic.value.DoubleValue
-8.577

@<SCITEGIC>MOL_PROPERTY
VdW12
SciTegic.value.DoubleValue
8.602

@<SCITEGIC>MOL_PROPERTY
Bond
SciTegic.value.DoubleValue
0.254

@<SCITEGIC>MOL_PROPERTY
Angle
SciTegic.value.DoubleValue
1.267

@<SCITEGIC>MOL_PROPERTY
Pdih
SciTegic.value.DoubleValue
1.514

@<SCITEGIC>MOL_PROPERTY
Idih
SciTegic.value.DoubleValue
0.000

@<SCITEGIC>MOL_PROPERTY
Tether
SciTegic.value.DoubleValue
0.000

@<TRIPOS>MOLECULE
guest-s12_vm2.mol2 : vm2 ligand conformer 98
          26          25           1
SMALL
USER_CHARGES
 
@<TRIPOS>ATOM
       1    N1      20.694741   19.218349   25.640277 N.4        1 MOL1        -0.4857
       2    H1      21.450803   19.752280   26.097375 H          1 MOL1         0.3650
       3    H2      21.157688   18.397538   25.222564 H          1 MOL1         0.3650
       4    C1      20.058040   20.065922   24.550413 C.3        1 MOL1         0.0209
       5    H3      20.866510   20.468162   23.935037 H          1 MOL1         0.0967
       6    H4      19.555063   20.906607   25.034841 H          1 MOL1         0.0967
       7    C2      19.057920   19.318175   23.640344 C.3        1 MOL1        -0.1378
       8    H5      18.201568   18.980877   24.238237 H          1 MOL1         0.0993
       9    H6      18.647530   20.027705   22.910735 H          1 MOL1         0.0993
      10    C3      19.671668   18.103179   22.896728 C.3        1 MOL1        -0.1338
      11    H7      18.900798   17.648239   22.260669 H          1 MOL1         0.0993
      12    H8      19.937299   17.328833   23.628823 H          1 MOL1         0.0993
      13    C4      20.923750   18.429609   22.038438 C.3        1 MOL1        -0.1338
      14    H9      21.747626   18.739096   22.695141 H          1 MOL1         0.0993
      15    H10     21.265758   17.505950   21.551534 H          1 MOL1         0.0993
      16    C5      20.713258   19.517165   20.954281 C.3        1 MOL1        -0.1313
      17    H11     21.664306   19.673729   20.426344 H          1 MOL1         0.0993
      18    H12     20.468406   20.479384   21.423569 H          1 MOL1         0.0993
      19    C6      19.625270   19.149714   19.919818 C.3        1 MOL1        -0.2328
      20    H13     19.575913   19.907966   19.127703 H          1 MOL1         0.1004
      21    H14     18.632589   19.091128   20.383107 H          1 MOL1         0.1004
      22    H15     19.841401   18.183271   19.446334 H          1 MOL1         0.1004
      23    C7      19.663353   18.787887   26.676702 C.3        1 MOL1        -0.0781
      24    H16     18.901186   18.173139   26.193675 H          1 MOL1         0.0978
      25    H17     20.161493   18.209186   27.457708 H          1 MOL1         0.0978
      26    H18     19.201676   19.676056   27.113464 H          1 MOL1         0.0978
@<TRIPOS>BOND
    1     1     2    1
    2     1     3    1
    3     1     4    1
    4     4     5    1
    5     4     6    1
    6     4     7    1
    7     7     8    1
    8     7     9    1
    9     7    10    1
   10    10    11    1
   11    10    12    1
   12    10    13    1
   13    13    14    1
   14    13    15    1
   15    13    16    1
   16    16    17    1
   17    16    18    1
   18    16    19    1
   19    19    20    1
   20    19    21    1
   21    19    22    1
   22     1    23    1
   23    23    24    1
   24    23    25    1
   25    23    26    1
@<TRIPOS>SUBSTRUCTURE
       1 MOL1            1 RESIDUE      1      MOL     
@<SCITEGIC>MOL_PROPERTY
VM2 Rank
SciTegic.value.IntegerValue
98

@<SCITEGIC>MOL_PROPERTY
Conf_Id
SciTegic.value.IntegerValue
393

@<SCITEGIC>MOL_PROPERTY
Probability
SciTegic.value.DoubleValue
0.11

@<SCITEGIC>MOL_PROPERTY
Sum Probability
SciTegic.value.DoubleValue
97.98

@<SCITEGIC>MOL_PROPERTY
Delta G
SciTegic.value.DoubleValue
2.477

@<SCITEGIC>MOL_PROPERTY
G
SciTegic.value.DoubleValue
77.943

@<SCITEGIC>MOL_PROPERTY
E
SciTegic.value.DoubleValue
44.702

@<SCITEGIC>MOL_PROPERTY
-TS
SciTegic.value.DoubleValue
33.241

@<SCITEGIC>MOL_PROPERTY
U+W
SciTegic.value.DoubleValue
23.241

@<SCITEGIC>MOL_PROPERTY
U
SciTegic.value.DoubleValue
73.340

@<SCITEGIC>MOL_PROPERTY
W
SciTegic.value.DoubleValue
-50.100

@<SCITEGIC>MOL_PROPERTY
W(PB)
SciTegic.value.DoubleValue
-52.272

@<SCITEGIC>MOL_PROPERTY
W(SA)
SciTegic.value.DoubleValue
2.172

@<SCITEGIC>MOL_PROPERTY
Valence
SciTegic.value.DoubleValue
3.289

@<SCITEGIC>MOL_PROPERTY
Coulomb
SciTegic.value.DoubleValue
69.804

@<SCITEGIC>MOL_PROPERTY
VdW
SciTegic.value.DoubleValue
0.247

@<SCITEGIC>MOL_PROPERTY
VdW6
SciTegic.value.DoubleValue
-9.372

@<SCITEGIC>MOL_PROPERTY
VdW12
SciTegic.value.DoubleValue
9.619

@<SCITEGIC>MOL_PROPERTY
Bond
SciTegic.value.DoubleValue
0.294

@<SCITEGIC>MOL_PROPERTY
Angle
SciTegic.value.DoubleValue
1.399

@<SCITEGIC>MOL_PROPERTY
Pdih
SciTegic.value.DoubleValue
1.596

@<SCITEGIC>MOL_PROPERTY
Idih
SciTegic.value.DoubleValue
0.000

@<SCITEGIC>MOL_PROPERTY
Tether
SciTegic.value.DoubleValue
0.000

@<TRIPOS>MOLECULE
guest-s12_vm2.mol2 : vm2 ligand conformer 99
          26          25           1
SMALL
USER_CHARGES
 
@<TRIPOS>ATOM
       1    N1      19.944528   19.105832   26.324227 N.4        1 MOL1        -0.4857
       2    H1      20.468280   19.138182   27.213272 H          1 MOL1         0.3650
       3    H2      19.063171   18.622956   26.557116 H          1 MOL1         0.3650
       4    C1      20.737275   18.292621   25.309840 C.3        1 MOL1         0.0209
       5    H3      21.025751   17.370304   25.820633 H          1 MOL1         0.0967
       6    H4      21.653187   18.837050   25.067070 H          1 MOL1         0.0967
       7    C2      19.986298   17.907538   24.015327 C.3        1 MOL1        -0.1378
       8    H5      20.385083   16.944703   23.669319 H          1 MOL1         0.0993
       9    H6      18.923332   17.740372   24.233858 H          1 MOL1         0.0993
      10    C3      20.153862   18.941584   22.875713 C.3        1 MOL1        -0.1338
      11    H7      21.224777   19.097954   22.691069 H          1 MOL1         0.0993
      12    H8      19.739885   19.911223   23.175267 H          1 MOL1         0.0993
      13    C4      19.458638   18.475325   21.573740 C.3        1 MOL1        -0.1338
      14    H9      19.910618   17.535611   21.227377 H          1 MOL1         0.0993
      15    H10     18.405334   18.249720   21.790709 H          1 MOL1         0.0993
      16    C5      19.511790   19.523722   20.435941 C.3        1 MOL1        -0.1313
      17    H11     19.037328   20.457647   20.768326 H          1 MOL1         0.0993
      18    H12     18.910965   19.158086   19.591433 H          1 MOL1         0.0993
      19    C6      20.944955   19.817801   19.936952 C.3        1 MOL1        -0.2328
      20    H13     21.551854   20.299282   20.713647 H          1 MOL1         0.1004
      21    H14     20.919502   20.493999   19.072642 H          1 MOL1         0.1004
      22    H15     21.452118   18.895258   19.625998 H          1 MOL1         0.1004
      23    C7      19.670654   20.525577   25.845260 C.3        1 MOL1        -0.0781
      24    H16     18.996893   20.492497   24.987649 H          1 MOL1         0.0978
      25    H17     19.200873   21.089522   26.654176 H          1 MOL1         0.0978
      26    H18     20.613713   20.999305   25.564207 H          1 MOL1         0.0978
@<TRIPOS>BOND
    1     1     2    1
    2     1     3    1
    3     1     4    1
    4     4     5    1
    5     4     6    1
    6     4     7    1
    7     7     8    1
    8     7     9    1
    9     7    10    1
   10    10    11    1
   11    10    12    1
   12    10    13    1
   13    13    14    1
   14    13    15    1
   15    13    16    1
   16    16    17    1
   17    16    18    1
   18    16    19    1
   19    19    20    1
   20    19    21    1
   21    19    22    1
   22     1    23    1
   23    23    24    1
   24    23    25    1
   25    23    26    1
@<TRIPOS>SUBSTRUCTURE
       1 MOL1            1 RESIDUE      1      MOL     
@<SCITEGIC>MOL_PROPERTY
VM2 Rank
SciTegic.value.IntegerValue
99

@<SCITEGIC>MOL_PROPERTY
Conf_Id
SciTegic.value.IntegerValue
752

@<SCITEGIC>MOL_PROPERTY
Probability
SciTegic.value.DoubleValue
0.10

@<SCITEGIC>MOL_PROPERTY
Sum Probability
SciTegic.value.DoubleValue
98.08

@<SCITEGIC>MOL_PROPERTY
Delta G
SciTegic.value.DoubleValue
2.506

@<SCITEGIC>MOL_PROPERTY
G
SciTegic.value.DoubleValue
77.972

@<SCITEGIC>MOL_PROPERTY
E
SciTegic.value.DoubleValue
45.666

@<SCITEGIC>MOL_PROPERTY
-TS
SciTegic.value.DoubleValue
32.307

@<SCITEGIC>MOL_PROPERTY
U+W
SciTegic.value.DoubleValue
24.204

@<SCITEGIC>MOL_PROPERTY
U
SciTegic.value.DoubleValue
73.665

@<SCITEGIC>MOL_PROPERTY
W
SciTegic.value.DoubleValue
-49.461

@<SCITEGIC>MOL_PROPERTY
W(PB)
SciTegic.value.DoubleValue
-51.723

@<SCITEGIC>MOL_PROPERTY
W(SA)
SciTegic.value.DoubleValue
2.262

@<SCITEGIC>MOL_PROPERTY
Valence
SciTegic.value.DoubleValue
4.363

@<SCITEGIC>MOL_PROPERTY
Coulomb
SciTegic.value.DoubleValue
68.782

@<SCITEGIC>MOL_PROPERTY
VdW
SciTegic.value.DoubleValue
0.519

@<SCITEGIC>MOL_PROPERTY
VdW6
SciTegic.value.DoubleValue
-7.471

@<SCITEGIC>MOL_PROPERTY
VdW12
SciTegic.value.DoubleValue
7.991

@<SCITEGIC>MOL_PROPERTY
Bond
SciTegic.value.DoubleValue
0.232

@<SCITEGIC>MOL_PROPERTY
Angle
SciTegic.value.DoubleValue
1.225

@<SCITEGIC>MOL_PROPERTY
Pdih
SciTegic.value.DoubleValue
2.906

@<SCITEGIC>MOL_PROPERTY
Idih
SciTegic.value.DoubleValue
0.000

@<SCITEGIC>MOL_PROPERTY
Tether
SciTegic.value.DoubleValue
0.000

@<TRIPOS>MOLECULE
guest-s12_vm2.mol2 : vm2 ligand conformer 100
          26          25           1
SMALL
USER_CHARGES
 
@<TRIPOS>ATOM
       1    N1      19.228331   19.068037   25.588308 N.4        1 MOL1        -0.4857
       2    H1      18.971709   18.173475   25.145095 H          1 MOL1         0.3650
       3    H2      18.349656   19.434394   25.987518 H          1 MOL1         0.3650
       4    C1      19.754783   20.034856   24.539651 C.3        1 MOL1         0.0209
       5    H3      20.041763   20.956529   25.052066 H          1 MOL1         0.0967
       6    H4      18.926695   20.269313   23.866296 H          1 MOL1         0.0967
       7    C2      20.946916   19.511869   23.707245 C.3        1 MOL1        -0.1378
       8    H5      21.255038   20.295057   23.003071 H          1 MOL1         0.0993
       9    H6      21.809847   19.350875   24.366044 H          1 MOL1         0.0993
      10    C3      20.645783   18.203046   22.931249 C.3        1 MOL1        -0.1338
      11    H7      20.492044   17.385707   23.648507 H          1 MOL1         0.0993
      12    H8      21.535463   17.918380   22.354000 H          1 MOL1         0.0993
      13    C4      19.416748   18.275033   21.985088 C.3        1 MOL1        -0.1338
      14    H9      19.304042   17.304749   21.482062 H          1 MOL1         0.0993
      15    H10     18.503330   18.406330   22.580271 H          1 MOL1         0.0993
      16    C5      19.477745   19.390460   20.910573 C.3        1 MOL1        -0.1313
      17    H11     19.489005   20.378929   21.388956 H          1 MOL1         0.0993
      18    H12     18.554027   19.354785   20.316270 H          1 MOL1         0.0993
      19    C6      20.687291   19.258656   19.957431 C.3        1 MOL1        -0.2328
      20    H13     20.637258   20.016920   19.165370 H          1 MOL1         0.1004
      21    H14     20.705180   18.271938   19.476829 H          1 MOL1         0.1004
      22    H15     21.636342   19.399088   20.489471 H          1 MOL1         0.1004
      23    C7      20.250403   18.848042   26.697455 C.3        1 MOL1        -0.0781
      24    H16     21.153249   18.404018   26.273380 H          1 MOL1         0.0978
      25    H17     20.490763   19.808158   27.159139 H          1 MOL1         0.0978
      26    H18     19.826443   18.174762   27.445761 H          1 MOL1         0.0978
@<TRIPOS>BOND
    1     1     2    1
    2     1     3    1
    3     1     4    1
    4     4     5    1
    5     4     6    1
    6     4     7    1
    7     7     8    1
    8     7     9    1
    9     7    10    1
   10    10    11    1
   11    10    12    1
   12    10    13    1
   13    13    14    1
   14    13    15    1
   15    13    16    1
   16    16    17    1
   17    16    18    1
   18    16    19    1
   19    19    20    1
   20    19    21    1
   21    19    22    1
   22     1    23    1
   23    23    24    1
   24    23    25    1
   25    23    26    1
@<TRIPOS>SUBSTRUCTURE
       1 MOL1            1 RESIDUE      1      MOL     
@<SCITEGIC>MOL_PROPERTY
VM2 Rank
SciTegic.value.IntegerValue
100

@<SCITEGIC>MOL_PROPERTY
Conf_Id
SciTegic.value.IntegerValue
526

@<SCITEGIC>MOL_PROPERTY
Probability
SciTegic.value.DoubleValue
0.09

@<SCITEGIC>MOL_PROPERTY
Sum Probability
SciTegic.value.DoubleValue
98.18

@<SCITEGIC>MOL_PROPERTY
Delta G
SciTegic.value.DoubleValue
2.557

@<SCITEGIC>MOL_PROPERTY
G
SciTegic.value.DoubleValue
78.023

@<SCITEGIC>MOL_PROPERTY
E
SciTegic.value.DoubleValue
44.782

@<SCITEGIC>MOL_PROPERTY
-TS
SciTegic.value.DoubleValue
33.241

@<SCITEGIC>MOL_PROPERTY
U+W
SciTegic.value.DoubleValue
23.320

@<SCITEGIC>MOL_PROPERTY
U
SciTegic.value.DoubleValue
73.340

@<SCITEGIC>MOL_PROPERTY
W
SciTegic.value.DoubleValue
-50.020

@<SCITEGIC>MOL_PROPERTY
W(PB)
SciTegic.value.DoubleValue
-52.188

@<SCITEGIC>MOL_PROPERTY
W(SA)
SciTegic.value.DoubleValue
2.168

@<SCITEGIC>MOL_PROPERTY
Valence
SciTegic.value.DoubleValue
3.289

@<SCITEGIC>MOL_PROPERTY
Coulomb
SciTegic.value.DoubleValue
69.804

@<SCITEGIC>MOL_PROPERTY
VdW
SciTegic.value.DoubleValue
0.246

@<SCITEGIC>MOL_PROPERTY
VdW6
SciTegic.value.DoubleValue
-9.372

@<SCITEGIC>MOL_PROPERTY
VdW12
SciTegic.value.DoubleValue
9.618

@<SCITEGIC>MOL_PROPERTY
Bond
SciTegic.value.DoubleValue
0.294

@<SCITEGIC>MOL_PROPERTY
Angle
SciTegic.value.DoubleValue
1.399

@<SCITEGIC>MOL_PROPERTY
Pdih
SciTegic.value.DoubleValue
1.596

@<SCITEGIC>MOL_PROPERTY
Idih
SciTegic.value.DoubleValue
0.000

@<SCITEGIC>MOL_PROPERTY
Tether
SciTegic.value.DoubleValue
0.000

@<TRIPOS>MOLECULE
guest-s12_vm2.mol2 : vm2 ligand conformer 101
          26          25           1
SMALL
USER_CHARGES
 
@<TRIPOS>ATOM
       1    N1      20.115082   19.349902   25.927568 N.4        1 MOL1        -0.4857
       2    H1      20.550514   19.195726   26.850656 H          1 MOL1         0.3650
       3    H2      19.145266   19.631660   26.135927 H          1 MOL1         0.3650
       4    C1      20.129210   18.046681   25.143606 C.3        1 MOL1         0.0209
       5    H3      20.103212   17.240356   25.881065 H          1 MOL1         0.0967
       6    H4      21.079540   17.974798   24.609579 H          1 MOL1         0.0967
       7    C2      18.941703   17.839995   24.174494 C.3        1 MOL1        -0.1378
       8    H5      18.986214   16.812310   23.790321 H          1 MOL1         0.0993
       9    H6      18.003322   17.909166   24.740308 H          1 MOL1         0.0993
      10    C3      18.886877   18.817563   22.974607 C.3        1 MOL1        -0.1338
      11    H7      18.738338   19.843368   23.335186 H          1 MOL1         0.0993
      12    H8      17.998772   18.579992   22.372845 H          1 MOL1         0.0993
      13    C4      20.141001   18.744206   22.070339 C.3        1 MOL1        -0.1338
      14    H9      21.040090   18.991291   22.649543 H          1 MOL1         0.0993
      15    H10     20.271368   17.715043   21.708249 H          1 MOL1         0.0993
      16    C5      20.035969   19.704517   20.864840 C.3        1 MOL1        -0.1313
      17    H11     19.902832   20.735327   21.222105 H          1 MOL1         0.0993
      18    H12     19.145305   19.457975   20.269957 H          1 MOL1         0.0993
      19    C6      21.288348   19.632649   19.965331 C.3        1 MOL1        -0.2328
      20    H13     21.429542   18.620154   19.565197 H          1 MOL1         0.1004
      21    H14     22.192251   19.908602   20.523897 H          1 MOL1         0.1004
      22    H15     21.194944   20.320625   19.115055 H          1 MOL1         0.1004
      23    C7      20.869809   20.454488   25.196215 C.3        1 MOL1        -0.0781
      24    H16     21.901654   20.135342   25.034456 H          1 MOL1         0.0978
      25    H17     20.391568   20.654142   24.236644 H          1 MOL1         0.0978
      26    H18     20.857019   21.359613   25.807462 H          1 MOL1         0.0978
@<TRIPOS>BOND
    1     1     2    1
    2     1     3    1
    3     1     4    1
    4     4     5    1
    5     4     6    1
    6     4     7    1
    7     7     8    1
    8     7     9    1
    9     7    10    1
   10    10    11    1
   11    10    12    1
   12    10    13    1
   13    13    14    1
   14    13    15    1
   15    13    16    1
   16    16    17    1
   17    16    18    1
   18    16    19    1
   19    19    20    1
   20    19    21    1
   21    19    22    1
   22     1    23    1
   23    23    24    1
   24    23    25    1
   25    23    26    1
@<TRIPOS>SUBSTRUCTURE
       1 MOL1            1 RESIDUE      1      MOL     
@<SCITEGIC>MOL_PROPERTY
VM2 Rank
SciTegic.value.IntegerValue
101

@<SCITEGIC>MOL_PROPERTY
Conf_Id
SciTegic.value.IntegerValue
1871

@<SCITEGIC>MOL_PROPERTY
Probability
SciTegic.value.DoubleValue
0.08

@<SCITEGIC>MOL_PROPERTY
Sum Probability
SciTegic.value.DoubleValue
98.26

@<SCITEGIC>MOL_PROPERTY
Delta G
SciTegic.value.DoubleValue
2.627

@<SCITEGIC>MOL_PROPERTY
G
SciTegic.value.DoubleValue
78.093

@<SCITEGIC>MOL_PROPERTY
E
SciTegic.value.DoubleValue
45.156

@<SCITEGIC>MOL_PROPERTY
-TS
SciTegic.value.DoubleValue
32.937

@<SCITEGIC>MOL_PROPERTY
U+W
SciTegic.value.DoubleValue
23.694

@<SCITEGIC>MOL_PROPERTY
U
SciTegic.value.DoubleValue
73.514

@<SCITEGIC>MOL_PROPERTY
W
SciTegic.value.DoubleValue
-49.820

@<SCITEGIC>MOL_PROPERTY
W(PB)
SciTegic.value.DoubleValue
-52.044

@<SCITEGIC>MOL_PROPERTY
W(SA)
SciTegic.value.DoubleValue
2.225

@<SCITEGIC>MOL_PROPERTY
Valence
SciTegic.value.DoubleValue
4.050

@<SCITEGIC>MOL_PROPERTY
Coulomb
SciTegic.value.DoubleValue
69.538

@<SCITEGIC>MOL_PROPERTY
VdW
SciTegic.value.DoubleValue
-0.074

@<SCITEGIC>MOL_PROPERTY
VdW6
SciTegic.value.DoubleValue
-8.211

@<SCITEGIC>MOL_PROPERTY
VdW12
SciTegic.value.DoubleValue
8.137

@<SCITEGIC>MOL_PROPERTY
Bond
SciTegic.value.DoubleValue
0.215

@<SCITEGIC>MOL_PROPERTY
Angle
SciTegic.value.DoubleValue
1.189

@<SCITEGIC>MOL_PROPERTY
Pdih
SciTegic.value.DoubleValue
2.646

@<SCITEGIC>MOL_PROPERTY
Idih
SciTegic.value.DoubleValue
0.000

@<SCITEGIC>MOL_PROPERTY
Tether
SciTegic.value.DoubleValue
0.000

@<TRIPOS>MOLECULE
guest-s12_vm2.mol2 : vm2 ligand conformer 102
          26          25           1
SMALL
USER_CHARGES
 
@<TRIPOS>ATOM
       1    N1      20.627396   18.947002   26.063118 N.4        1 MOL1        -0.4857
       2    H1      21.535387   18.971738   25.574878 H          1 MOL1         0.3650
       3    H2      20.826633   18.502122   26.973080 H          1 MOL1         0.3650
       4    C1      19.635592   18.089886   25.292598 C.3        1 MOL1         0.0209
       5    H3      18.625457   18.394269   25.577712 H          1 MOL1         0.0967
       6    H4      19.780586   17.060926   25.631628 H          1 MOL1         0.0967
       7    C2      19.790881   18.111591   23.755466 C.3        1 MOL1        -0.1378
       8    H5      20.800855   17.771482   23.494087 H          1 MOL1         0.0993
       9    H6      19.095560   17.373168   23.334879 H          1 MOL1         0.0993
      10    C3      19.509664   19.493518   23.115356 C.3        1 MOL1        -0.1338
      11    H7      20.294713   20.204859   23.403264 H          1 MOL1         0.0993
      12    H8      18.565192   19.888446   23.514573 H          1 MOL1         0.0993
      13    C4      19.411158   19.448591   21.570521 C.3        1 MOL1        -0.1338
      14    H9      18.608035   18.760646   21.272133 H          1 MOL1         0.0993
      15    H10     19.113146   20.443280   21.211093 H          1 MOL1         0.0993
      16    C5      20.732982   19.038417   20.878809 C.3        1 MOL1        -0.1313
      17    H11     21.011075   18.016284   21.168417 H          1 MOL1         0.0993
      18    H12     21.546848   19.696923   21.213115 H          1 MOL1         0.0993
      19    C6      20.616975   19.109302   19.341129 C.3        1 MOL1        -0.2328
      20    H13     19.830252   18.437745   18.973328 H          1 MOL1         0.1004
      21    H14     21.561585   18.812830   18.866966 H          1 MOL1         0.1004
      22    H15     20.379308   20.128351   19.009114 H          1 MOL1         0.1004
      23    C7      20.083353   20.351693   26.300005 C.3        1 MOL1        -0.0781
      24    H16     19.906518   20.844600   25.343352 H          1 MOL1         0.0978
      25    H17     19.146699   20.282568   26.857413 H          1 MOL1         0.0978
      26    H18     20.812900   20.923590   26.877719 H          1 MOL1         0.0978
@<TRIPOS>BOND
    1     1     2    1
    2     1     3    1
    3     1     4    1
    4     4     5    1
    5     4     6    1
    6     4     7    1
    7     7     8    1
    8     7     9    1
    9     7    10    1
   10    10    11    1
   11    10    12    1
   12    10    13    1
   13    13    14    1
   14    13    15    1
   15    13    16    1
   16    16    17    1
   17    16    18    1
   18    16    19    1
   19    19    20    1
   20    19    21    1
   21    19    22    1
   22     1    23    1
   23    23    24    1
   24    23    25    1
   25    23    26    1
@<TRIPOS>SUBSTRUCTURE
       1 MOL1            1 RESIDUE      1      MOL     
@<SCITEGIC>MOL_PROPERTY
VM2 Rank
SciTegic.value.IntegerValue
102

@<SCITEGIC>MOL_PROPERTY
Conf_Id
SciTegic.value.IntegerValue
563

@<SCITEGIC>MOL_PROPERTY
Probability
SciTegic.value.DoubleValue
0.07

@<SCITEGIC>MOL_PROPERTY
Sum Probability
SciTegic.value.DoubleValue
98.33

@<SCITEGIC>MOL_PROPERTY
Delta G
SciTegic.value.DoubleValue
2.714

@<SCITEGIC>MOL_PROPERTY
G
SciTegic.value.DoubleValue
78.180

@<SCITEGIC>MOL_PROPERTY
E
SciTegic.value.DoubleValue
45.547

@<SCITEGIC>MOL_PROPERTY
-TS
SciTegic.value.DoubleValue
32.633

@<SCITEGIC>MOL_PROPERTY
U+W
SciTegic.value.DoubleValue
24.086

@<SCITEGIC>MOL_PROPERTY
U
SciTegic.value.DoubleValue
73.664

@<SCITEGIC>MOL_PROPERTY
W
SciTegic.value.DoubleValue
-49.578

@<SCITEGIC>MOL_PROPERTY
W(PB)
SciTegic.value.DoubleValue
-51.836

@<SCITEGIC>MOL_PROPERTY
W(SA)
SciTegic.value.DoubleValue
2.258

@<SCITEGIC>MOL_PROPERTY
Valence
SciTegic.value.DoubleValue
4.219

@<SCITEGIC>MOL_PROPERTY
Coulomb
SciTegic.value.DoubleValue
69.065

@<SCITEGIC>MOL_PROPERTY
VdW
SciTegic.value.DoubleValue
0.380

@<SCITEGIC>MOL_PROPERTY
VdW6
SciTegic.value.DoubleValue
-7.612

@<SCITEGIC>MOL_PROPERTY
VdW12
SciTegic.value.DoubleValue
7.992

@<SCITEGIC>MOL_PROPERTY
Bond
SciTegic.value.DoubleValue
0.225

@<SCITEGIC>MOL_PROPERTY
Angle
SciTegic.value.DoubleValue
1.067

@<SCITEGIC>MOL_PROPERTY
Pdih
SciTegic.value.DoubleValue
2.927

@<SCITEGIC>MOL_PROPERTY
Idih
SciTegic.value.DoubleValue
0.000

@<SCITEGIC>MOL_PROPERTY
Tether
SciTegic.value.DoubleValue
0.000

@<TRIPOS>MOLECULE
guest-s12_vm2.mol2 : vm2 ligand conformer 103
          26          25           1
SMALL
USER_CHARGES
 
@<TRIPOS>ATOM
       1    N1      19.455125   18.767436   25.958470 N.4        1 MOL1        -0.4857
       2    H1      19.443807   18.596102   26.976389 H          1 MOL1         0.3650
       3    H2      18.992702   17.943643   25.544975 H          1 MOL1         0.3650
       4    C1      20.895616   18.860305   25.480998 C.3        1 MOL1         0.0209
       5    H3      21.496582   18.271286   26.178578 H          1 MOL1         0.0967
       6    H4      21.216969   19.901607   25.563137 H          1 MOL1         0.0967
       7    C2      21.159895   18.326746   24.055133 C.3        1 MOL1        -0.1378
       8    H5      22.242743   18.363082   23.876666 H          1 MOL1         0.0993
       9    H6      20.873926   17.267867   24.003577 H          1 MOL1         0.0993
      10    C3      20.435248   19.118963   22.941631 C.3        1 MOL1        -0.1338
      11    H7      20.654044   20.190144   23.050724 H          1 MOL1         0.0993
      12    H8      19.351707   18.994851   23.056588 H          1 MOL1         0.0993
      13    C4      20.858614   18.644893   21.530308 C.3        1 MOL1        -0.1338
      14    H9      21.952161   18.706888   21.442792 H          1 MOL1         0.0993
      15    H10     20.598170   17.585203   21.401619 H          1 MOL1         0.0993
      16    C5      20.227774   19.474854   20.385828 C.3        1 MOL1        -0.1313
      17    H11     20.658898   19.142831   19.430963 H          1 MOL1         0.0993
      18    H12     20.505740   20.532332   20.496667 H          1 MOL1         0.0993
      19    C6      18.689142   19.347292   20.308273 C.3        1 MOL1        -0.2328
      20    H13     18.304087   19.875646   19.426515 H          1 MOL1         0.1004
      21    H14     18.202918   19.781953   21.190325 H          1 MOL1         0.1004
      22    H15     18.383303   18.296013   20.229142 H          1 MOL1         0.1004
      23    C7      18.686586   20.049511   25.656358 C.3        1 MOL1        -0.0781
      24    H16     19.179996   20.887080   26.154194 H          1 MOL1         0.0978
      25    H17     18.666469   20.222345   24.579652 H          1 MOL1         0.0978
      26    H18     17.665515   19.949721   26.031221 H          1 MOL1         0.0978
@<TRIPOS>BOND
    1     1     2    1
    2     1     3    1
    3     1     4    1
    4     4     5    1
    5     4     6    1
    6     4     7    1
    7     7     8    1
    8     7     9    1
    9     7    10    1
   10    10    11    1
   11    10    12    1
   12    10    13    1
   13    13    14    1
   14    13    15    1
   15    13    16    1
   16    16    17    1
   17    16    18    1
   18    16    19    1
   19    19    20    1
   20    19    21    1
   21    19    22    1
   22     1    23    1
   23    23    24    1
   24    23    25    1
   25    23    26    1
@<TRIPOS>SUBSTRUCTURE
       1 MOL1            1 RESIDUE      1      MOL     
@<SCITEGIC>MOL_PROPERTY
VM2 Rank
SciTegic.value.IntegerValue
103

@<SCITEGIC>MOL_PROPERTY
Conf_Id
SciTegic.value.IntegerValue
1558

@<SCITEGIC>MOL_PROPERTY
Probability
SciTegic.value.DoubleValue
0.07

@<SCITEGIC>MOL_PROPERTY
Sum Probability
SciTegic.value.DoubleValue
98.40

@<SCITEGIC>MOL_PROPERTY
Delta G
SciTegic.value.DoubleValue
2.742

@<SCITEGIC>MOL_PROPERTY
G
SciTegic.value.DoubleValue
78.208

@<SCITEGIC>MOL_PROPERTY
E
SciTegic.value.DoubleValue
45.580

@<SCITEGIC>MOL_PROPERTY
-TS
SciTegic.value.DoubleValue
32.628

@<SCITEGIC>MOL_PROPERTY
U+W
SciTegic.value.DoubleValue
24.118

@<SCITEGIC>MOL_PROPERTY
U
SciTegic.value.DoubleValue
73.676

@<SCITEGIC>MOL_PROPERTY
W
SciTegic.value.DoubleValue
-49.558

@<SCITEGIC>MOL_PROPERTY
W(PB)
SciTegic.value.DoubleValue
-51.785

@<SCITEGIC>MOL_PROPERTY
W(SA)
SciTegic.value.DoubleValue
2.228

@<SCITEGIC>MOL_PROPERTY
Valence
SciTegic.value.DoubleValue
4.236

@<SCITEGIC>MOL_PROPERTY
Coulomb
SciTegic.value.DoubleValue
69.060

@<SCITEGIC>MOL_PROPERTY
VdW
SciTegic.value.DoubleValue
0.379

@<SCITEGIC>MOL_PROPERTY
VdW6
SciTegic.value.DoubleValue
-7.629

@<SCITEGIC>MOL_PROPERTY
VdW12
SciTegic.value.DoubleValue
8.009

@<SCITEGIC>MOL_PROPERTY
Bond
SciTegic.value.DoubleValue
0.224

@<SCITEGIC>MOL_PROPERTY
Angle
SciTegic.value.DoubleValue
1.075

@<SCITEGIC>MOL_PROPERTY
Pdih
SciTegic.value.DoubleValue
2.937

@<SCITEGIC>MOL_PROPERTY
Idih
SciTegic.value.DoubleValue
0.000

@<SCITEGIC>MOL_PROPERTY
Tether
SciTegic.value.DoubleValue
0.000

@<TRIPOS>MOLECULE
guest-s12_vm2.mol2 : vm2 ligand conformer 104
          26          25           1
SMALL
USER_CHARGES
 
@<TRIPOS>ATOM
       1    N1      19.274317   18.473827   25.314289 N.4        1 MOL1        -0.4857
       2    H1      18.909720   18.195296   24.392185 H          1 MOL1         0.3650
       3    H2      18.516422   18.253487   25.979752 H          1 MOL1         0.3650
       4    C1      19.547682   19.968325   25.334094 C.3        1 MOL1         0.0209
       5    H3      19.910280   20.215031   26.335149 H          1 MOL1         0.0967
       6    H4      18.590515   20.476767   25.193277 H          1 MOL1         0.0967
       7    C2      20.555645   20.499099   24.287195 C.3        1 MOL1        -0.1378
       8    H5      20.719668   21.561663   24.510204 H          1 MOL1         0.0993
       9    H6      21.533746   20.017265   24.412616 H          1 MOL1         0.0993
      10    C3      20.078768   20.388529   22.815789 C.3        1 MOL1        -0.1338
      11    H7      20.620812   21.140143   22.225173 H          1 MOL1         0.0993
      12    H8      19.015412   20.656732   22.746765 H          1 MOL1         0.0993
      13    C4      20.325529   19.001019   22.173866 C.3        1 MOL1        -0.1338
      14    H9      21.387518   18.736155   22.270578 H          1 MOL1         0.0993
      15    H10     19.757548   18.226374   22.699964 H          1 MOL1         0.0993
      16    C5      19.928438   18.982468   20.680879 C.3        1 MOL1        -0.1313
      17    H11     20.502821   19.743222   20.133771 H          1 MOL1         0.0993
      18    H12     18.867701   19.250317   20.575510 H          1 MOL1         0.0993
      19    C6      20.173109   17.599172   20.040851 C.3        1 MOL1        -0.2328
      20    H13     21.232599   17.318005   20.101100 H          1 MOL1         0.1004
      21    H14     19.886594   17.606283   18.981191 H          1 MOL1         0.1004
      22    H15     19.583869   16.821154   20.543485 H          1 MOL1         0.1004
      23    C7      20.524513   17.677560   25.670036 C.3        1 MOL1        -0.0781
      24    H16     20.875104   17.983269   26.658159 H          1 MOL1         0.0978
      25    H17     20.280015   16.613061   25.678392 H          1 MOL1         0.0978
      26    H18     21.299283   17.870719   24.925385 H          1 MOL1         0.0978
@<TRIPOS>BOND
    1     1     2    1
    2     1     3    1
    3     1     4    1
    4     4     5    1
    5     4     6    1
    6     4     7    1
    7     7     8    1
    8     7     9    1
    9     7    10    1
   10    10    11    1
   11    10    12    1
   12    10    13    1
   13    13    14    1
   14    13    15    1
   15    13    16    1
   16    16    17    1
   17    16    18    1
   18    16    19    1
   19    19    20    1
   20    19    21    1
   21    19    22    1
   22     1    23    1
   23    23    24    1
   24    23    25    1
   25    23    26    1
@<TRIPOS>SUBSTRUCTURE
       1 MOL1            1 RESIDUE      1      MOL     
@<SCITEGIC>MOL_PROPERTY
VM2 Rank
SciTegic.value.IntegerValue
104

@<SCITEGIC>MOL_PROPERTY
Conf_Id
SciTegic.value.IntegerValue
972

@<SCITEGIC>MOL_PROPERTY
Probability
SciTegic.value.DoubleValue
0.07

@<SCITEGIC>MOL_PROPERTY
Sum Probability
SciTegic.value.DoubleValue
98.47

@<SCITEGIC>MOL_PROPERTY
Delta G
SciTegic.value.DoubleValue
2.750

@<SCITEGIC>MOL_PROPERTY
G
SciTegic.value.DoubleValue
78.216

@<SCITEGIC>MOL_PROPERTY
E
SciTegic.value.DoubleValue
45.854

@<SCITEGIC>MOL_PROPERTY
-TS
SciTegic.value.DoubleValue
32.362

@<SCITEGIC>MOL_PROPERTY
U+W
SciTegic.value.DoubleValue
24.393

@<SCITEGIC>MOL_PROPERTY
U
SciTegic.value.DoubleValue
74.362

@<SCITEGIC>MOL_PROPERTY
W
SciTegic.value.DoubleValue
-49.970

@<SCITEGIC>MOL_PROPERTY
W(PB)
SciTegic.value.DoubleValue
-52.197

@<SCITEGIC>MOL_PROPERTY
W(SA)
SciTegic.value.DoubleValue
2.227

@<SCITEGIC>MOL_PROPERTY
Valence
SciTegic.value.DoubleValue
3.851

@<SCITEGIC>MOL_PROPERTY
Coulomb
SciTegic.value.DoubleValue
70.383

@<SCITEGIC>MOL_PROPERTY
VdW
SciTegic.value.DoubleValue
0.128

@<SCITEGIC>MOL_PROPERTY
VdW6
SciTegic.value.DoubleValue
-7.957

@<SCITEGIC>MOL_PROPERTY
VdW12
SciTegic.value.DoubleValue
8.084

@<SCITEGIC>MOL_PROPERTY
Bond
SciTegic.value.DoubleValue
0.231

@<SCITEGIC>MOL_PROPERTY
Angle
SciTegic.value.DoubleValue
1.282

@<SCITEGIC>MOL_PROPERTY
Pdih
SciTegic.value.DoubleValue
2.338

@<SCITEGIC>MOL_PROPERTY
Idih
SciTegic.value.DoubleValue
0.000

@<SCITEGIC>MOL_PROPERTY
Tether
SciTegic.value.DoubleValue
0.000

@<TRIPOS>MOLECULE
guest-s12_vm2.mol2 : vm2 ligand conformer 105
          26          25           1
SMALL
USER_CHARGES
 
@<TRIPOS>ATOM
       1    N1      20.508347   18.875780   25.995819 N.4        1 MOL1        -0.4857
       2    H1      21.156329   18.166126   25.621711 H          1 MOL1         0.3650
       3    H2      20.482932   18.703054   27.013248 H          1 MOL1         0.3650
       4    C1      19.116093   18.677374   25.417995 C.3        1 MOL1         0.0209
       5    H3      18.584873   19.631017   25.469895 H          1 MOL1         0.0967
       6    H4      18.600035   17.973527   26.076026 H          1 MOL1         0.0967
       7    C2      19.066278   18.111465   23.981023 C.3        1 MOL1        -0.1378
       8    H5      19.564337   17.133185   23.957288 H          1 MOL1         0.0993
       9    H6      18.013853   17.928277   23.726911 H          1 MOL1         0.0993
      10    C3      19.690988   19.042354   22.915286 C.3        1 MOL1        -0.1338
      11    H7      20.766373   19.140222   23.106729 H          1 MOL1         0.0993
      12    H8      19.251975   20.045906   23.001026 H          1 MOL1         0.0993
      13    C4      19.472709   18.502246   21.481252 C.3        1 MOL1        -0.1338
      14    H9      19.951614   17.518642   21.378740 H          1 MOL1         0.0993
      15    H10     18.398275   18.341134   21.316995 H          1 MOL1         0.0993
      16    C5      20.000021   19.451396   20.377763 C.3        1 MOL1        -0.1313
      17    H11     19.505747   20.429417   20.461314 H          1 MOL1         0.0993
      18    H12     19.713265   19.045542   19.397494 H          1 MOL1         0.0993
      19    C6      21.534016   19.639976   20.408890 C.3        1 MOL1        -0.2328
      20    H13     22.052032   18.673471   20.358736 H          1 MOL1         0.1004
      21    H14     21.858816   20.157944   21.319700 H          1 MOL1         0.1004
      22    H15     21.864234   20.242055   19.552513 H          1 MOL1         0.1004
      23    C7      21.019548   20.289408   25.738973 C.3        1 MOL1        -0.0781
      24    H16     20.332607   21.005655   26.194954 H          1 MOL1         0.0978
      25    H17     22.010781   20.396519   26.185123 H          1 MOL1         0.0978
      26    H18     21.079477   20.470419   24.665095 H          1 MOL1         0.0978
@<TRIPOS>BOND
    1     1     2    1
    2     1     3    1
    3     1     4    1
    4     4     5    1
    5     4     6    1
    6     4     7    1
    7     7     8    1
    8     7     9    1
    9     7    10    1
   10    10    11    1
   11    10    12    1
   12    10    13    1
   13    13    14    1
   14    13    15    1
   15    13    16    1
   16    16    17    1
   17    16    18    1
   18    16    19    1
   19    19    20    1
   20    19    21    1
   21    19    22    1
   22     1    23    1
   23    23    24    1
   24    23    25    1
   25    23    26    1
@<TRIPOS>SUBSTRUCTURE
       1 MOL1            1 RESIDUE      1      MOL     
@<SCITEGIC>MOL_PROPERTY
VM2 Rank
SciTegic.value.IntegerValue
105

@<SCITEGIC>MOL_PROPERTY
Conf_Id
SciTegic.value.IntegerValue
557

@<SCITEGIC>MOL_PROPERTY
Probability
SciTegic.value.DoubleValue
0.07

@<SCITEGIC>MOL_PROPERTY
Sum Probability
SciTegic.value.DoubleValue
98.53

@<SCITEGIC>MOL_PROPERTY
Delta G
SciTegic.value.DoubleValue
2.763

@<SCITEGIC>MOL_PROPERTY
G
SciTegic.value.DoubleValue
78.229

@<SCITEGIC>MOL_PROPERTY
E
SciTegic.value.DoubleValue
45.601

@<SCITEGIC>MOL_PROPERTY
-TS
SciTegic.value.DoubleValue
32.628

@<SCITEGIC>MOL_PROPERTY
U+W
SciTegic.value.DoubleValue
24.139

@<SCITEGIC>MOL_PROPERTY
U
SciTegic.value.DoubleValue
73.676

@<SCITEGIC>MOL_PROPERTY
W
SciTegic.value.DoubleValue
-49.536

@<SCITEGIC>MOL_PROPERTY
W(PB)
SciTegic.value.DoubleValue
-51.781

@<SCITEGIC>MOL_PROPERTY
W(SA)
SciTegic.value.DoubleValue
2.245

@<SCITEGIC>MOL_PROPERTY
Valence
SciTegic.value.DoubleValue
4.237

@<SCITEGIC>MOL_PROPERTY
Coulomb
SciTegic.value.DoubleValue
69.060

@<SCITEGIC>MOL_PROPERTY
VdW
SciTegic.value.DoubleValue
0.379

@<SCITEGIC>MOL_PROPERTY
VdW6
SciTegic.value.DoubleValue
-7.629

@<SCITEGIC>MOL_PROPERTY
VdW12
SciTegic.value.DoubleValue
8.008

@<SCITEGIC>MOL_PROPERTY
Bond
SciTegic.value.DoubleValue
0.224

@<SCITEGIC>MOL_PROPERTY
Angle
SciTegic.value.DoubleValue
1.075

@<SCITEGIC>MOL_PROPERTY
Pdih
SciTegic.value.DoubleValue
2.937

@<SCITEGIC>MOL_PROPERTY
Idih
SciTegic.value.DoubleValue
0.000

@<SCITEGIC>MOL_PROPERTY
Tether
SciTegic.value.DoubleValue
0.000

@<TRIPOS>MOLECULE
guest-s12_vm2.mol2 : vm2 ligand conformer 106
          26          25           1
SMALL
USER_CHARGES
 
@<TRIPOS>ATOM
       1    N1      20.783763   18.619324   25.367862 N.4        1 MOL1        -0.4857
       2    H1      21.521368   18.543366   26.086168 H          1 MOL1         0.3650
       3    H2      21.258337   18.421318   24.475479 H          1 MOL1         0.3650
       4    C1      20.229695   20.034091   25.357941 C.3        1 MOL1         0.0209
       5    H3      21.079766   20.716670   25.280642 H          1 MOL1         0.0967
       6    H4      19.757717   20.200702   26.329501 H          1 MOL1         0.0967
       7    C2      19.214562   20.369538   24.239598 C.3        1 MOL1        -0.1378
       8    H5      18.340241   19.708826   24.299561 H          1 MOL1         0.0993
       9    H6      18.835309   21.379627   24.443474 H          1 MOL1         0.0993
      10    C3      19.805375   20.362212   22.805875 C.3        1 MOL1        -0.1338
      11    H7      20.799612   20.830083   22.809359 H          1 MOL1         0.0993
      12    H8      19.171677   20.999605   22.173642 H          1 MOL1         0.0993
      13    C4      19.875135   18.957397   22.157980 C.3        1 MOL1        -0.1338
      14    H9      20.543694   18.303046   22.727456 H          1 MOL1         0.0993
      15    H10     18.879820   18.492571   22.182735 H          1 MOL1         0.0993
      16    C5      20.370853   19.025396   20.696242 C.3        1 MOL1        -0.1313
      17    H11     21.364898   19.493110   20.662727 H          1 MOL1         0.0993
      18    H12     19.700094   19.664916   20.105409 H          1 MOL1         0.0993
      19    C6      20.441973   17.625097   20.050401 C.3        1 MOL1        -0.2328
      20    H13     19.454859   17.144802   20.039160 H          1 MOL1         0.1004
      21    H14     21.133759   16.971815   20.597951 H          1 MOL1         0.1004
      22    H15     20.794394   17.694186   19.013075 H          1 MOL1         0.1004
      23    C7      19.686645   17.596945   25.641101 C.3        1 MOL1        -0.0781
      24    H16     18.943226   17.643482   24.842824 H          1 MOL1         0.0978
      25    H17     20.128501   16.598603   25.674073 H          1 MOL1         0.0978
      26    H18     19.216004   17.823877   26.600141 H          1 MOL1         0.0978
@<TRIPOS>BOND
    1     1     2    1
    2     1     3    1
    3     1     4    1
    4     4     5    1
    5     4     6    1
    6     4     7    1
    7     7     8    1
    8     7     9    1
    9     7    10    1
   10    10    11    1
   11    10    12    1
   12    10    13    1
   13    13    14    1
   14    13    15    1
   15    13    16    1
   16    16    17    1
   17    16    18    1
   18    16    19    1
   19    19    20    1
   20    19    21    1
   21    19    22    1
   22     1    23    1
   23    23    24    1
   24    23    25    1
   25    23    26    1
@<TRIPOS>SUBSTRUCTURE
       1 MOL1            1 RESIDUE      1      MOL     
@<SCITEGIC>MOL_PROPERTY
VM2 Rank
SciTegic.value.IntegerValue
106

@<SCITEGIC>MOL_PROPERTY
Conf_Id
SciTegic.value.IntegerValue
1847

@<SCITEGIC>MOL_PROPERTY
Probability
SciTegic.value.DoubleValue
0.06

@<SCITEGIC>MOL_PROPERTY
Sum Probability
SciTegic.value.DoubleValue
98.60

@<SCITEGIC>MOL_PROPERTY
Delta G
SciTegic.value.DoubleValue
2.818

@<SCITEGIC>MOL_PROPERTY
G
SciTegic.value.DoubleValue
78.284

@<SCITEGIC>MOL_PROPERTY
E
SciTegic.value.DoubleValue
45.928

@<SCITEGIC>MOL_PROPERTY
-TS
SciTegic.value.DoubleValue
32.355

@<SCITEGIC>MOL_PROPERTY
U+W
SciTegic.value.DoubleValue
24.466

@<SCITEGIC>MOL_PROPERTY
U
SciTegic.value.DoubleValue
74.362

@<SCITEGIC>MOL_PROPERTY
W
SciTegic.value.DoubleValue
-49.896

@<SCITEGIC>MOL_PROPERTY
W(PB)
SciTegic.value.DoubleValue
-52.135

@<SCITEGIC>MOL_PROPERTY
W(SA)
SciTegic.value.DoubleValue
2.240

@<SCITEGIC>MOL_PROPERTY
Valence
SciTegic.value.DoubleValue
3.850

@<SCITEGIC>MOL_PROPERTY
Coulomb
SciTegic.value.DoubleValue
70.385

@<SCITEGIC>MOL_PROPERTY
VdW
SciTegic.value.DoubleValue
0.127

@<SCITEGIC>MOL_PROPERTY
VdW6
SciTegic.value.DoubleValue
-7.956

@<SCITEGIC>MOL_PROPERTY
VdW12
SciTegic.value.DoubleValue
8.083

@<SCITEGIC>MOL_PROPERTY
Bond
SciTegic.value.DoubleValue
0.231

@<SCITEGIC>MOL_PROPERTY
Angle
SciTegic.value.DoubleValue
1.284

@<SCITEGIC>MOL_PROPERTY
Pdih
SciTegic.value.DoubleValue
2.335

@<SCITEGIC>MOL_PROPERTY
Idih
SciTegic.value.DoubleValue
0.000

@<SCITEGIC>MOL_PROPERTY
Tether
SciTegic.value.DoubleValue
0.000

@<TRIPOS>MOLECULE
guest-s12_vm2.mol2 : vm2 ligand conformer 107
          26          25           1
SMALL
USER_CHARGES
 
@<TRIPOS>ATOM
       1    N1      19.532103   18.852293   25.906299 N.4        1 MOL1        -0.4857
       2    H1      20.237599   18.485092   26.563760 H          1 MOL1         0.3650
       3    H2      18.899425   18.060590   25.712366 H          1 MOL1         0.3650
       4    C1      20.199896   19.314296   24.626975 C.3        1 MOL1         0.0209
       5    H3      20.868858   20.140904   24.879221 H          1 MOL1         0.0967
       6    H4      19.420174   19.696649   23.966660 H          1 MOL1         0.0967
       7    C2      20.999703   18.200425   23.922164 C.3        1 MOL1        -0.1378
       8    H5      21.769700   17.841674   24.618158 H          1 MOL1         0.0993
       9    H6      20.350827   17.340902   23.707655 H          1 MOL1         0.0993
      10    C3      21.694660   18.680526   22.622893 C.3        1 MOL1        -0.1338
      11    H7      22.585537   18.057667   22.461873 H          1 MOL1         0.0993
      12    H8      22.069011   19.705499   22.752983 H          1 MOL1         0.0993
      13    C4      20.823649   18.589560   21.342668 C.3        1 MOL1        -0.1338
      14    H9      21.443600   18.888625   20.486111 H          1 MOL1         0.0993
      15    H10     20.543816   17.542121   21.164114 H          1 MOL1         0.0993
      16    C5      19.548408   19.463782   21.366856 C.3        1 MOL1        -0.1313
      17    H11     19.805070   20.491783   21.658501 H          1 MOL1         0.0993
      18    H12     18.844760   19.078267   22.115994 H          1 MOL1         0.0993
      19    C6      18.844448   19.482296   19.993142 C.3        1 MOL1        -0.2328
      20    H13     17.936328   20.097833   20.031209 H          1 MOL1         0.1004
      21    H14     18.552289   18.469703   19.685691 H          1 MOL1         0.1004
      22    H15     19.500582   19.899025   19.217889 H          1 MOL1         0.1004
      23    C7      18.765133   20.006823   26.536004 C.3        1 MOL1        -0.0781
      24    H16     19.460014   20.818496   26.762461 H          1 MOL1         0.0978
      25    H17     18.003175   20.356284   25.835834 H          1 MOL1         0.0978
      26    H18     18.289414   19.661005   27.456460 H          1 MOL1         0.0978
@<TRIPOS>BOND
    1     1     2    1
    2     1     3    1
    3     1     4    1
    4     4     5    1
    5     4     6    1
    6     4     7    1
    7     7     8    1
    8     7     9    1
    9     7    10    1
   10    10    11    1
   11    10    12    1
   12    10    13    1
   13    13    14    1
   14    13    15    1
   15    13    16    1
   16    16    17    1
   17    16    18    1
   18    16    19    1
   19    19    20    1
   20    19    21    1
   21    19    22    1
   22     1    23    1
   23    23    24    1
   24    23    25    1
   25    23    26    1
@<TRIPOS>SUBSTRUCTURE
       1 MOL1            1 RESIDUE      1      MOL     
@<SCITEGIC>MOL_PROPERTY
VM2 Rank
SciTegic.value.IntegerValue
107

@<SCITEGIC>MOL_PROPERTY
Conf_Id
SciTegic.value.IntegerValue
1369

@<SCITEGIC>MOL_PROPERTY
Probability
SciTegic.value.DoubleValue
0.05

@<SCITEGIC>MOL_PROPERTY
Sum Probability
SciTegic.value.DoubleValue
98.65

@<SCITEGIC>MOL_PROPERTY
Delta G
SciTegic.value.DoubleValue
2.918

@<SCITEGIC>MOL_PROPERTY
G
SciTegic.value.DoubleValue
78.384

@<SCITEGIC>MOL_PROPERTY
E
SciTegic.value.DoubleValue
45.898

@<SCITEGIC>MOL_PROPERTY
-TS
SciTegic.value.DoubleValue
32.486

@<SCITEGIC>MOL_PROPERTY
U+W
SciTegic.value.DoubleValue
24.436

@<SCITEGIC>MOL_PROPERTY
U
SciTegic.value.DoubleValue
73.891

@<SCITEGIC>MOL_PROPERTY
W
SciTegic.value.DoubleValue
-49.455

@<SCITEGIC>MOL_PROPERTY
W(PB)
SciTegic.value.DoubleValue
-51.734

@<SCITEGIC>MOL_PROPERTY
W(SA)
SciTegic.value.DoubleValue
2.278

@<SCITEGIC>MOL_PROPERTY
Valence
SciTegic.value.DoubleValue
4.111

@<SCITEGIC>MOL_PROPERTY
Coulomb
SciTegic.value.DoubleValue
69.672

@<SCITEGIC>MOL_PROPERTY
VdW
SciTegic.value.DoubleValue
0.108

@<SCITEGIC>MOL_PROPERTY
VdW6
SciTegic.value.DoubleValue
-6.998

@<SCITEGIC>MOL_PROPERTY
VdW12
SciTegic.value.DoubleValue
7.106

@<SCITEGIC>MOL_PROPERTY
Bond
SciTegic.value.DoubleValue
0.196

@<SCITEGIC>MOL_PROPERTY
Angle
SciTegic.value.DoubleValue
1.122

@<SCITEGIC>MOL_PROPERTY
Pdih
SciTegic.value.DoubleValue
2.794

@<SCITEGIC>MOL_PROPERTY
Idih
SciTegic.value.DoubleValue
0.000

@<SCITEGIC>MOL_PROPERTY
Tether
SciTegic.value.DoubleValue
0.000

@<TRIPOS>MOLECULE
guest-s12_vm2.mol2 : vm2 ligand conformer 108
          26          25           1
SMALL
USER_CHARGES
 
@<TRIPOS>ATOM
       1    N1      19.757447   18.675177   26.342445 N.4        1 MOL1        -0.4857
       2    H1      19.997538   17.671897   26.345426 H          1 MOL1         0.3650
       3    H2      19.221111   18.819054   27.212746 H          1 MOL1         0.3650
       4    C1      18.868815   18.997267   25.148562 C.3        1 MOL1         0.0209
       5    H3      18.629634   20.063376   25.170361 H          1 MOL1         0.0967
       6    H4      17.938423   18.445162   25.304602 H          1 MOL1         0.0967
       7    C2      19.434354   18.606217   23.764874 C.3        1 MOL1        -0.1378
       8    H5      20.082129   17.724852   23.860260 H          1 MOL1         0.0993
       9    H6      18.588066   18.302935   23.136206 H          1 MOL1         0.0993
      10    C3      20.188555   19.766063   23.065943 C.3        1 MOL1        -0.1338
      11    H7      20.979736   20.145724   23.723076 H          1 MOL1         0.0993
      12    H8      19.500003   20.606813   22.903703 H          1 MOL1         0.0993
      13    C4      20.835307   19.359917   21.718465 C.3        1 MOL1        -0.1338
      14    H9      21.437920   20.203458   21.354142 H          1 MOL1         0.0993
      15    H10     21.536224   18.529712   21.882151 H          1 MOL1         0.0993
      16    C5      19.809084   18.968949   20.628372 C.3        1 MOL1        -0.1313
      17    H11     19.074692   19.776832   20.502806 H          1 MOL1         0.0993
      18    H12     19.250284   18.075130   20.935820 H          1 MOL1         0.0993
      19    C6      20.495836   18.687592   19.274766 C.3        1 MOL1        -0.2328
      20    H13     21.032671   19.573788   18.911930 H          1 MOL1         0.1004
      21    H14     19.754667   18.408782   18.514534 H          1 MOL1         0.1004
      22    H15     21.215847   17.863397   19.361310 H          1 MOL1         0.1004
      23    C7      21.018601   19.528819   26.373573 C.3        1 MOL1        -0.0781
      24    H16     20.739432   20.584345   26.347235 H          1 MOL1         0.0978
      25    H17     21.570761   19.315613   27.291577 H          1 MOL1         0.0978
      26    H18     21.639521   19.284010   25.509895 H          1 MOL1         0.0978
@<TRIPOS>BOND
    1     1     2    1
    2     1     3    1
    3     1     4    1
    4     4     5    1
    5     4     6    1
    6     4     7    1
    7     7     8    1
    8     7     9    1
    9     7    10    1
   10    10    11    1
   11    10    12    1
   12    10    13    1
   13    13    14    1
   14    13    15    1
   15    13    16    1
   16    16    17    1
   17    16    18    1
   18    16    19    1
   19    19    20    1
   20    19    21    1
   21    19    22    1
   22     1    23    1
   23    23    24    1
   24    23    25    1
   25    23    26    1
@<TRIPOS>SUBSTRUCTURE
       1 MOL1            1 RESIDUE      1      MOL     
@<SCITEGIC>MOL_PROPERTY
VM2 Rank
SciTegic.value.IntegerValue
108

@<SCITEGIC>MOL_PROPERTY
Conf_Id
SciTegic.value.IntegerValue
965

@<SCITEGIC>MOL_PROPERTY
Probability
SciTegic.value.DoubleValue
0.05

@<SCITEGIC>MOL_PROPERTY
Sum Probability
SciTegic.value.DoubleValue
98.70

@<SCITEGIC>MOL_PROPERTY
Delta G
SciTegic.value.DoubleValue
2.925

@<SCITEGIC>MOL_PROPERTY
G
SciTegic.value.DoubleValue
78.391

@<SCITEGIC>MOL_PROPERTY
E
SciTegic.value.DoubleValue
45.921

@<SCITEGIC>MOL_PROPERTY
-TS
SciTegic.value.DoubleValue
32.469

@<SCITEGIC>MOL_PROPERTY
U+W
SciTegic.value.DoubleValue
24.459

@<SCITEGIC>MOL_PROPERTY
U
SciTegic.value.DoubleValue
73.840

@<SCITEGIC>MOL_PROPERTY
W
SciTegic.value.DoubleValue
-49.381

@<SCITEGIC>MOL_PROPERTY
W(PB)
SciTegic.value.DoubleValue
-51.643

@<SCITEGIC>MOL_PROPERTY
W(SA)
SciTegic.value.DoubleValue
2.262

@<SCITEGIC>MOL_PROPERTY
Valence
SciTegic.value.DoubleValue
4.494

@<SCITEGIC>MOL_PROPERTY
Coulomb
SciTegic.value.DoubleValue
68.796

@<SCITEGIC>MOL_PROPERTY
VdW
SciTegic.value.DoubleValue
0.550

@<SCITEGIC>MOL_PROPERTY
VdW6
SciTegic.value.DoubleValue
-7.478

@<SCITEGIC>MOL_PROPERTY
VdW12
SciTegic.value.DoubleValue
8.028

@<SCITEGIC>MOL_PROPERTY
Bond
SciTegic.value.DoubleValue
0.238

@<SCITEGIC>MOL_PROPERTY
Angle
SciTegic.value.DoubleValue
1.174

@<SCITEGIC>MOL_PROPERTY
Pdih
SciTegic.value.DoubleValue
3.082

@<SCITEGIC>MOL_PROPERTY
Idih
SciTegic.value.DoubleValue
0.000

@<SCITEGIC>MOL_PROPERTY
Tether
SciTegic.value.DoubleValue
0.000

@<TRIPOS>MOLECULE
guest-s12_vm2.mol2 : vm2 ligand conformer 109
          26          25           1
SMALL
USER_CHARGES
 
@<TRIPOS>ATOM
       1    N1      20.000356   18.691447   26.235533 N.4        1 MOL1        -0.4857
       2    H1      20.436761   18.480019   27.146851 H          1 MOL1         0.3650
       3    H2      19.522430   17.819941   25.960712 H          1 MOL1         0.3650
       4    C1      21.083772   19.040399   25.227835 C.3        1 MOL1         0.0209
       5    H3      22.000907   18.555202   25.571592 H          1 MOL1         0.0967
       6    H4      21.247194   20.120457   25.261084 H          1 MOL1         0.0967
       7    C2      20.816057   18.581644   23.776808 C.3        1 MOL1        -0.1378
       8    H5      21.713184   18.811086   23.189466 H          1 MOL1         0.0993
       9    H6      20.703047   17.489736   23.755925 H          1 MOL1         0.0993
      10    C3      19.579010   19.248280   23.124560 C.3        1 MOL1        -0.1338
      11    H7      19.666095   20.341597   23.190355 H          1 MOL1         0.0993
      12    H8      18.681328   18.970798   23.691709 H          1 MOL1         0.0993
      13    C4      19.354557   18.831822   21.649576 C.3        1 MOL1        -0.1338
      14    H9      19.283399   17.737456   21.581644 H          1 MOL1         0.0993
      15    H10     18.381071   19.223615   21.323570 H          1 MOL1         0.0993
      16    C5      20.448177   19.346362   20.683117 C.3        1 MOL1        -0.1313
      17    H11     21.420084   18.902990   20.936150 H          1 MOL1         0.0993
      18    H12     20.556679   20.434664   20.790782 H          1 MOL1         0.0993
      19    C6      20.113611   19.009356   19.214241 C.3        1 MOL1        -0.2328
      20    H13     20.027594   17.924735   19.067943 H          1 MOL1         0.1004
      21    H14     20.899954   19.378332   18.543015 H          1 MOL1         0.1004
      22    H15     19.166105   19.471760   18.908298 H          1 MOL1         0.1004
      23    C7      19.012461   19.840689   26.405329 C.3        1 MOL1        -0.0781
      24    H16     18.527588   20.053726   25.451773 H          1 MOL1         0.0978
      25    H17     18.260111   19.557871   27.144955 H          1 MOL1         0.0978
      26    H18     19.550990   20.726207   26.749804 H          1 MOL1         0.0978
@<TRIPOS>BOND
    1     1     2    1
    2     1     3    1
    3     1     4    1
    4     4     5    1
    5     4     6    1
    6     4     7    1
    7     7     8    1
    8     7     9    1
    9     7    10    1
   10    10    11    1
   11    10    12    1
   12    10    13    1
   13    13    14    1
   14    13    15    1
   15    13    16    1
   16    16    17    1
   17    16    18    1
   18    16    19    1
   19    19    20    1
   20    19    21    1
   21    19    22    1
   22     1    23    1
   23    23    24    1
   24    23    25    1
   25    23    26    1
@<TRIPOS>SUBSTRUCTURE
       1 MOL1            1 RESIDUE      1      MOL     
@<SCITEGIC>MOL_PROPERTY
VM2 Rank
SciTegic.value.IntegerValue
109

@<SCITEGIC>MOL_PROPERTY
Conf_Id
SciTegic.value.IntegerValue
1611

@<SCITEGIC>MOL_PROPERTY
Probability
SciTegic.value.DoubleValue
0.05

@<SCITEGIC>MOL_PROPERTY
Sum Probability
SciTegic.value.DoubleValue
98.75

@<SCITEGIC>MOL_PROPERTY
Delta G
SciTegic.value.DoubleValue
2.933

@<SCITEGIC>MOL_PROPERTY
G
SciTegic.value.DoubleValue
78.399

@<SCITEGIC>MOL_PROPERTY
E
SciTegic.value.DoubleValue
45.854

@<SCITEGIC>MOL_PROPERTY
-TS
SciTegic.value.DoubleValue
32.545

@<SCITEGIC>MOL_PROPERTY
U+W
SciTegic.value.DoubleValue
24.392

@<SCITEGIC>MOL_PROPERTY
U
SciTegic.value.DoubleValue
73.757

@<SCITEGIC>MOL_PROPERTY
W
SciTegic.value.DoubleValue
-49.366

@<SCITEGIC>MOL_PROPERTY
W(PB)
SciTegic.value.DoubleValue
-51.645

@<SCITEGIC>MOL_PROPERTY
W(SA)
SciTegic.value.DoubleValue
2.279

@<SCITEGIC>MOL_PROPERTY
Valence
SciTegic.value.DoubleValue
4.423

@<SCITEGIC>MOL_PROPERTY
Coulomb
SciTegic.value.DoubleValue
68.887

@<SCITEGIC>MOL_PROPERTY
VdW
SciTegic.value.DoubleValue
0.447

@<SCITEGIC>MOL_PROPERTY
VdW6
SciTegic.value.DoubleValue
-7.490

@<SCITEGIC>MOL_PROPERTY
VdW12
SciTegic.value.DoubleValue
7.937

@<SCITEGIC>MOL_PROPERTY
Bond
SciTegic.value.DoubleValue
0.232

@<SCITEGIC>MOL_PROPERTY
Angle
SciTegic.value.DoubleValue
1.146

@<SCITEGIC>MOL_PROPERTY
Pdih
SciTegic.value.DoubleValue
3.045

@<SCITEGIC>MOL_PROPERTY
Idih
SciTegic.value.DoubleValue
0.000

@<SCITEGIC>MOL_PROPERTY
Tether
SciTegic.value.DoubleValue
0.000

@<TRIPOS>MOLECULE
guest-s12_vm2.mol2 : vm2 ligand conformer 110
          26          25           1
SMALL
USER_CHARGES
 
@<TRIPOS>ATOM
       1    N1      20.204353   18.720715   26.358228 N.4        1 MOL1        -0.4857
       2    H1      20.638386   18.963441   27.262926 H          1 MOL1         0.3650
       3    H2      20.171878   17.689636   26.351427 H          1 MOL1         0.3650
       4    C1      21.091177   19.224026   25.227301 C.3        1 MOL1         0.0209
       5    H3      22.100543   18.869841   25.452094 H          1 MOL1         0.0967
       6    H4      21.108258   20.316282   25.258231 H          1 MOL1         0.0967
       7    C2      20.714562   18.736882   23.810189 C.3        1 MOL1        -0.1378
       8    H5      21.646563   18.615244   23.244515 H          1 MOL1         0.0993
       9    H6      20.253004   17.742227   23.866194 H          1 MOL1         0.0993
      10    C3      19.792586   19.725606   23.051935 C.3        1 MOL1        -0.1338
      11    H7      20.306882   20.689185   22.932335 H          1 MOL1         0.0993
      12    H8      18.897029   19.933005   23.649338 H          1 MOL1         0.0993
      13    C4      19.337078   19.206967   21.665402 C.3        1 MOL1        -0.1338
      14    H9      18.808437   18.251232   21.785514 H          1 MOL1         0.0993
      15    H10     18.603633   19.914123   21.253790 H          1 MOL1         0.0993
      16    C5      20.494826   19.039001   20.652635 C.3        1 MOL1        -0.1313
      17    H11     21.199636   18.274208   21.004813 H          1 MOL1         0.0993
      18    H12     21.057970   19.979375   20.573010 H          1 MOL1         0.0993
      19    C6      19.975458   18.634493   19.256328 C.3        1 MOL1        -0.2328
      20    H13     19.432474   17.681276   19.298142 H          1 MOL1         0.1004
      21    H14     20.808988   18.516576   18.551811 H          1 MOL1         0.1004
      22    H15     19.297441   19.396605   18.850537 H          1 MOL1         0.1004
      23    C7      18.797960   19.302308   26.294982 C.3        1 MOL1        -0.0781
      24    H16     18.859718   20.392607   26.280796 H          1 MOL1         0.0978
      25    H17     18.301124   18.943566   25.391727 H          1 MOL1         0.0978
      26    H18     18.237280   18.975544   27.173580 H          1 MOL1         0.0978
@<TRIPOS>BOND
    1     1     2    1
    2     1     3    1
    3     1     4    1
    4     4     5    1
    5     4     6    1
    6     4     7    1
    7     7     8    1
    8     7     9    1
    9     7    10    1
   10    10    11    1
   11    10    12    1
   12    10    13    1
   13    13    14    1
   14    13    15    1
   15    13    16    1
   16    16    17    1
   17    16    18    1
   18    16    19    1
   19    19    20    1
   20    19    21    1
   21    19    22    1
   22     1    23    1
   23    23    24    1
   24    23    25    1
   25    23    26    1
@<TRIPOS>SUBSTRUCTURE
       1 MOL1            1 RESIDUE      1      MOL     
@<SCITEGIC>MOL_PROPERTY
VM2 Rank
SciTegic.value.IntegerValue
110

@<SCITEGIC>MOL_PROPERTY
Conf_Id
SciTegic.value.IntegerValue
1046

@<SCITEGIC>MOL_PROPERTY
Probability
SciTegic.value.DoubleValue
0.05

@<SCITEGIC>MOL_PROPERTY
Sum Probability
SciTegic.value.DoubleValue
98.80

@<SCITEGIC>MOL_PROPERTY
Delta G
SciTegic.value.DoubleValue
2.947

@<SCITEGIC>MOL_PROPERTY
G
SciTegic.value.DoubleValue
78.413

@<SCITEGIC>MOL_PROPERTY
E
SciTegic.value.DoubleValue
45.943

@<SCITEGIC>MOL_PROPERTY
-TS
SciTegic.value.DoubleValue
32.469

@<SCITEGIC>MOL_PROPERTY
U+W
SciTegic.value.DoubleValue
24.482

@<SCITEGIC>MOL_PROPERTY
U
SciTegic.value.DoubleValue
73.840

@<SCITEGIC>MOL_PROPERTY
W
SciTegic.value.DoubleValue
-49.359

@<SCITEGIC>MOL_PROPERTY
W(PB)
SciTegic.value.DoubleValue
-51.615

@<SCITEGIC>MOL_PROPERTY
W(SA)
SciTegic.value.DoubleValue
2.256

@<SCITEGIC>MOL_PROPERTY
Valence
SciTegic.value.DoubleValue
4.495

@<SCITEGIC>MOL_PROPERTY
Coulomb
SciTegic.value.DoubleValue
68.796

@<SCITEGIC>MOL_PROPERTY
VdW
SciTegic.value.DoubleValue
0.550

@<SCITEGIC>MOL_PROPERTY
VdW6
SciTegic.value.DoubleValue
-7.478

@<SCITEGIC>MOL_PROPERTY
VdW12
SciTegic.value.DoubleValue
8.028

@<SCITEGIC>MOL_PROPERTY
Bond
SciTegic.value.DoubleValue
0.238

@<SCITEGIC>MOL_PROPERTY
Angle
SciTegic.value.DoubleValue
1.175

@<SCITEGIC>MOL_PROPERTY
Pdih
SciTegic.value.DoubleValue
3.082

@<SCITEGIC>MOL_PROPERTY
Idih
SciTegic.value.DoubleValue
0.000

@<SCITEGIC>MOL_PROPERTY
Tether
SciTegic.value.DoubleValue
0.000

@<TRIPOS>MOLECULE
guest-s12_vm2.mol2 : vm2 ligand conformer 111
          26          25           1
SMALL
USER_CHARGES
 
@<TRIPOS>ATOM
       1    N1      20.419563   18.943772   25.937829 N.4        1 MOL1        -0.4857
       2    H1      21.212078   18.298734   25.794546 H          1 MOL1         0.3650
       3    H2      19.759212   18.436098   26.546943 H          1 MOL1         0.3650
       4    C1      19.763093   19.269256   24.611490 C.3        1 MOL1         0.0209
       5    H3      20.493006   19.807007   24.004676 H          1 MOL1         0.0967
       6    H4      18.923882   19.940575   24.810166 H          1 MOL1         0.0967
       7    C2      19.258179   18.020952   23.860517 C.3        1 MOL1        -0.1378
       8    H5      20.081867   17.313129   23.698160 H          1 MOL1         0.0993
       9    H6      18.530585   17.507934   24.503501 H          1 MOL1         0.0993
      10    C3      18.572673   18.358806   22.512368 C.3        1 MOL1        -0.1338
      11    H7      17.989237   19.285080   22.608551 H          1 MOL1         0.0993
      12    H8      17.840832   17.568731   22.293893 H          1 MOL1         0.0993
      13    C4      19.531355   18.456389   21.296917 C.3        1 MOL1        -0.1338
      14    H9      20.030478   17.489226   21.145952 H          1 MOL1         0.0993
      15    H10     18.924969   18.629055   20.396944 H          1 MOL1         0.0993
      16    C5      20.596893   19.571852   21.403948 C.3        1 MOL1        -0.1313
      17    H11     21.310136   19.332386   22.203254 H          1 MOL1         0.0993
      18    H12     20.116444   20.523895   21.669470 H          1 MOL1         0.0993
      19    C6      21.376687   19.743239   20.082758 C.3        1 MOL1        -0.2328
      20    H13     22.135422   20.530588   20.179802 H          1 MOL1         0.1004
      21    H14     20.705309   20.023096   19.260491 H          1 MOL1         0.1004
      22    H15     21.889791   18.813631   19.803865 H          1 MOL1         0.1004
      23    C7      20.889556   20.225734   26.611172 C.3        1 MOL1        -0.0781
      24    H16     20.029968   20.877477   26.782329 H          1 MOL1         0.0978
      25    H17     21.359908   19.977471   27.565255 H          1 MOL1         0.0978
      26    H18     21.611700   20.727788   25.963568 H          1 MOL1         0.0978
@<TRIPOS>BOND
    1     1     2    1
    2     1     3    1
    3     1     4    1
    4     4     5    1
    5     4     6    1
    6     4     7    1
    7     7     8    1
    8     7     9    1
    9     7    10    1
   10    10    11    1
   11    10    12    1
   12    10    13    1
   13    13    14    1
   14    13    15    1
   15    13    16    1
   16    16    17    1
   17    16    18    1
   18    16    19    1
   19    19    20    1
   20    19    21    1
   21    19    22    1
   22     1    23    1
   23    23    24    1
   24    23    25    1
   25    23    26    1
@<TRIPOS>SUBSTRUCTURE
       1 MOL1            1 RESIDUE      1      MOL     
@<SCITEGIC>MOL_PROPERTY
VM2 Rank
SciTegic.value.IntegerValue
111

@<SCITEGIC>MOL_PROPERTY
Conf_Id
SciTegic.value.IntegerValue
1368

@<SCITEGIC>MOL_PROPERTY
Probability
SciTegic.value.DoubleValue
0.05

@<SCITEGIC>MOL_PROPERTY
Sum Probability
SciTegic.value.DoubleValue
98.84

@<SCITEGIC>MOL_PROPERTY
Delta G
SciTegic.value.DoubleValue
2.976

@<SCITEGIC>MOL_PROPERTY
G
SciTegic.value.DoubleValue
78.442

@<SCITEGIC>MOL_PROPERTY
E
SciTegic.value.DoubleValue
45.956

@<SCITEGIC>MOL_PROPERTY
-TS
SciTegic.value.DoubleValue
32.486

@<SCITEGIC>MOL_PROPERTY
U+W
SciTegic.value.DoubleValue
24.494

@<SCITEGIC>MOL_PROPERTY
U
SciTegic.value.DoubleValue
73.891

@<SCITEGIC>MOL_PROPERTY
W
SciTegic.value.DoubleValue
-49.397

@<SCITEGIC>MOL_PROPERTY
W(PB)
SciTegic.value.DoubleValue
-51.698

@<SCITEGIC>MOL_PROPERTY
W(SA)
SciTegic.value.DoubleValue
2.301

@<SCITEGIC>MOL_PROPERTY
Valence
SciTegic.value.DoubleValue
4.111

@<SCITEGIC>MOL_PROPERTY
Coulomb
SciTegic.value.DoubleValue
69.672

@<SCITEGIC>MOL_PROPERTY
VdW
SciTegic.value.DoubleValue
0.108

@<SCITEGIC>MOL_PROPERTY
VdW6
SciTegic.value.DoubleValue
-6.998

@<SCITEGIC>MOL_PROPERTY
VdW12
SciTegic.value.DoubleValue
7.106

@<SCITEGIC>MOL_PROPERTY
Bond
SciTegic.value.DoubleValue
0.196

@<SCITEGIC>MOL_PROPERTY
Angle
SciTegic.value.DoubleValue
1.122

@<SCITEGIC>MOL_PROPERTY
Pdih
SciTegic.value.DoubleValue
2.794

@<SCITEGIC>MOL_PROPERTY
Idih
SciTegic.value.DoubleValue
0.000

@<SCITEGIC>MOL_PROPERTY
Tether
SciTegic.value.DoubleValue
0.000

@<TRIPOS>MOLECULE
guest-s12_vm2.mol2 : vm2 ligand conformer 112
          26          25           1
SMALL
USER_CHARGES
 
@<TRIPOS>ATOM
       1    N1      20.052300   19.699359   26.002257 N.4        1 MOL1        -0.4857
       2    H1      20.326254   20.621969   26.375871 H          1 MOL1         0.3650
       3    H2      20.439502   19.015711   26.670899 H          1 MOL1         0.3650
       4    C1      20.672072   19.501445   24.629506 C.3        1 MOL1         0.0209
       5    H3      21.729837   19.764512   24.710234 H          1 MOL1         0.0967
       6    H4      20.200868   20.211317   23.948090 H          1 MOL1         0.0967
       7    C2      20.556943   18.063122   24.078318 C.3        1 MOL1        -0.1378
       8    H5      21.031522   17.384278   24.799142 H          1 MOL1         0.0993
       9    H6      19.505600   17.755638   24.009726 H          1 MOL1         0.0993
      10    C3      21.248227   17.885465   22.702874 C.3        1 MOL1        -0.1338
      11    H7      21.568374   16.838083   22.613452 H          1 MOL1         0.0993
      12    H8      22.170385   18.481935   22.665080 H          1 MOL1         0.0993
      13    C4      20.354288   18.207625   21.476920 C.3        1 MOL1        -0.1338
      14    H9      20.929674   17.987868   20.566929 H          1 MOL1         0.0993
      15    H10     19.492614   17.525968   21.463752 H          1 MOL1         0.0993
      16    C5      19.852106   19.668672   21.411923 C.3        1 MOL1        -0.1313
      17    H11     20.696905   20.360338   21.536795 H          1 MOL1         0.0993
      18    H12     19.150031   19.859663   22.233970 H          1 MOL1         0.0993
      19    C6      19.139570   19.967161   20.075468 C.3        1 MOL1        -0.2328
      20    H13     19.819059   19.826406   19.224780 H          1 MOL1         0.1004
      21    H14     18.780578   21.004236   20.050762 H          1 MOL1         0.1004
      22    H15     18.273491   19.307521   19.934036 H          1 MOL1         0.1004
      23    C7      18.532494   19.597150   25.939734 C.3        1 MOL1        -0.0781
      24    H16     18.250300   18.597185   25.604461 H          1 MOL1         0.0978
      25    H17     18.121182   19.779992   26.934960 H          1 MOL1         0.0978
      26    H18     18.151096   20.344321   25.240400 H          1 MOL1         0.0978
@<TRIPOS>BOND
    1     1     2    1
    2     1     3    1
    3     1     4    1
    4     4     5    1
    5     4     6    1
    6     4     7    1
    7     7     8    1
    8     7     9    1
    9     7    10    1
   10    10    11    1
   11    10    12    1
   12    10    13    1
   13    13    14    1
   14    13    15    1
   15    13    16    1
   16    16    17    1
   17    16    18    1
   18    16    19    1
   19    19    20    1
   20    19    21    1
   21    19    22    1
   22     1    23    1
   23    23    24    1
   24    23    25    1
   25    23    26    1
@<TRIPOS>SUBSTRUCTURE
       1 MOL1            1 RESIDUE      1      MOL     
@<SCITEGIC>MOL_PROPERTY
VM2 Rank
SciTegic.value.IntegerValue
112

@<SCITEGIC>MOL_PROPERTY
Conf_Id
SciTegic.value.IntegerValue
1075

@<SCITEGIC>MOL_PROPERTY
Probability
SciTegic.value.DoubleValue
0.04

@<SCITEGIC>MOL_PROPERTY
Sum Probability
SciTegic.value.DoubleValue
98.88

@<SCITEGIC>MOL_PROPERTY
Delta G
SciTegic.value.DoubleValue
3.088

@<SCITEGIC>MOL_PROPERTY
G
SciTegic.value.DoubleValue
78.554

@<SCITEGIC>MOL_PROPERTY
E
SciTegic.value.DoubleValue
45.906

@<SCITEGIC>MOL_PROPERTY
-TS
SciTegic.value.DoubleValue
32.648

@<SCITEGIC>MOL_PROPERTY
U+W
SciTegic.value.DoubleValue
24.444

@<SCITEGIC>MOL_PROPERTY
U
SciTegic.value.DoubleValue
74.229

@<SCITEGIC>MOL_PROPERTY
W
SciTegic.value.DoubleValue
-49.785

@<SCITEGIC>MOL_PROPERTY
W(PB)
SciTegic.value.DoubleValue
-52.042

@<SCITEGIC>MOL_PROPERTY
W(SA)
SciTegic.value.DoubleValue
2.257

@<SCITEGIC>MOL_PROPERTY
Valence
SciTegic.value.DoubleValue
4.376

@<SCITEGIC>MOL_PROPERTY
Coulomb
SciTegic.value.DoubleValue
69.549

@<SCITEGIC>MOL_PROPERTY
VdW
SciTegic.value.DoubleValue
0.304

@<SCITEGIC>MOL_PROPERTY
VdW6
SciTegic.value.DoubleValue
-7.808

@<SCITEGIC>MOL_PROPERTY
VdW12
SciTegic.value.DoubleValue
8.111

@<SCITEGIC>MOL_PROPERTY
Bond
SciTegic.value.DoubleValue
0.233

@<SCITEGIC>MOL_PROPERTY
Angle
SciTegic.value.DoubleValue
1.219

@<SCITEGIC>MOL_PROPERTY
Pdih
SciTegic.value.DoubleValue
2.924

@<SCITEGIC>MOL_PROPERTY
Idih
SciTegic.value.DoubleValue
0.000

@<SCITEGIC>MOL_PROPERTY
Tether
SciTegic.value.DoubleValue
0.000

@<TRIPOS>MOLECULE
guest-s12_vm2.mol2 : vm2 ligand conformer 113
          26          25           1
SMALL
USER_CHARGES
 
@<TRIPOS>ATOM
       1    N1      19.502321   18.515816   25.277462 N.4        1 MOL1        -0.4857
       2    H1      19.932467   17.615376   25.540172 H          1 MOL1         0.3650
       3    H2      19.080157   18.359925   24.351012 H          1 MOL1         0.3650
       4    C1      20.564909   19.594977   25.193383 C.3        1 MOL1         0.0209
       5    H3      21.009894   19.679262   26.188100 H          1 MOL1         0.0967
       6    H4      20.077163   20.544270   24.958252 H          1 MOL1         0.0967
       7    C2      21.680341   19.311276   24.165284 C.3        1 MOL1        -0.1378
       8    H5      22.565403   19.888723   24.463726 H          1 MOL1         0.0993
       9    H6      21.978943   18.255741   24.215466 H          1 MOL1         0.0993
      10    C3      21.325719   19.704095   22.708062 C.3        1 MOL1        -0.1338
      11    H7      22.217781   19.548433   22.085550 H          1 MOL1         0.0993
      12    H8      21.105987   20.779868   22.663314 H          1 MOL1         0.0993
      13    C4      20.144167   18.911627   22.099487 C.3        1 MOL1        -0.1338
      14    H9      20.308384   17.834419   22.241254 H          1 MOL1         0.0993
      15    H10     19.213630   19.174402   22.618014 H          1 MOL1         0.0993
      16    C5      19.970257   19.208820   20.593367 C.3        1 MOL1        -0.1313
      17    H11     20.890424   18.944851   20.053344 H          1 MOL1         0.0993
      18    H12     19.813073   20.286253   20.443329 H          1 MOL1         0.0993
      19    C6      18.782431   18.429090   19.989982 C.3        1 MOL1        -0.2328
      20    H13     18.926544   17.345882   20.095338 H          1 MOL1         0.1004
      21    H14     18.676077   18.651810   18.920347 H          1 MOL1         0.1004
      22    H15     17.840282   18.698540   20.484883 H          1 MOL1         0.1004
      23    C7      18.437854   18.914300   26.289973 C.3        1 MOL1        -0.0781
      24    H16     17.680449   18.128948   26.341691 H          1 MOL1         0.0978
      25    H17     18.904099   19.042001   27.269379 H          1 MOL1         0.0978
      26    H18     17.975787   19.852493   25.974988 H          1 MOL1         0.0978
@<TRIPOS>BOND
    1     1     2    1
    2     1     3    1
    3     1     4    1
    4     4     5    1
    5     4     6    1
    6     4     7    1
    7     7     8    1
    8     7     9    1
    9     7    10    1
   10    10    11    1
   11    10    12    1
   12    10    13    1
   13    13    14    1
   14    13    15    1
   15    13    16    1
   16    16    17    1
   17    16    18    1
   18    16    19    1
   19    19    20    1
   20    19    21    1
   21    19    22    1
   22     1    23    1
   23    23    24    1
   24    23    25    1
   25    23    26    1
@<TRIPOS>SUBSTRUCTURE
       1 MOL1            1 RESIDUE      1      MOL     
@<SCITEGIC>MOL_PROPERTY
VM2 Rank
SciTegic.value.IntegerValue
113

@<SCITEGIC>MOL_PROPERTY
Conf_Id
SciTegic.value.IntegerValue
1052

@<SCITEGIC>MOL_PROPERTY
Probability
SciTegic.value.DoubleValue
0.04

@<SCITEGIC>MOL_PROPERTY
Sum Probability
SciTegic.value.DoubleValue
98.92

@<SCITEGIC>MOL_PROPERTY
Delta G
SciTegic.value.DoubleValue
3.117

@<SCITEGIC>MOL_PROPERTY
G
SciTegic.value.DoubleValue
78.583

@<SCITEGIC>MOL_PROPERTY
E
SciTegic.value.DoubleValue
46.237

@<SCITEGIC>MOL_PROPERTY
-TS
SciTegic.value.DoubleValue
32.346

@<SCITEGIC>MOL_PROPERTY
U+W
SciTegic.value.DoubleValue
24.775

@<SCITEGIC>MOL_PROPERTY
U
SciTegic.value.DoubleValue
73.983

@<SCITEGIC>MOL_PROPERTY
W
SciTegic.value.DoubleValue
-49.208

@<SCITEGIC>MOL_PROPERTY
W(PB)
SciTegic.value.DoubleValue
-51.488

@<SCITEGIC>MOL_PROPERTY
W(SA)
SciTegic.value.DoubleValue
2.280

@<SCITEGIC>MOL_PROPERTY
Valence
SciTegic.value.DoubleValue
3.347

@<SCITEGIC>MOL_PROPERTY
Coulomb
SciTegic.value.DoubleValue
70.654

@<SCITEGIC>MOL_PROPERTY
VdW
SciTegic.value.DoubleValue
-0.018

@<SCITEGIC>MOL_PROPERTY
VdW6
SciTegic.value.DoubleValue
-6.981

@<SCITEGIC>MOL_PROPERTY
VdW12
SciTegic.value.DoubleValue
6.963

@<SCITEGIC>MOL_PROPERTY
Bond
SciTegic.value.DoubleValue
0.176

@<SCITEGIC>MOL_PROPERTY
Angle
SciTegic.value.DoubleValue
0.935

@<SCITEGIC>MOL_PROPERTY
Pdih
SciTegic.value.DoubleValue
2.235

@<SCITEGIC>MOL_PROPERTY
Idih
SciTegic.value.DoubleValue
0.000

@<SCITEGIC>MOL_PROPERTY
Tether
SciTegic.value.DoubleValue
0.000

@<TRIPOS>MOLECULE
guest-s12_vm2.mol2 : vm2 ligand conformer 114
          26          25           1
SMALL
USER_CHARGES
 
@<TRIPOS>ATOM
       1    N1      19.618042   19.846063   25.914367 N.4        1 MOL1        -0.4857
       2    H1      19.041345   20.692254   26.045642 H          1 MOL1         0.3650
       3    H2      20.448922   19.995587   26.507405 H          1 MOL1         0.3650
       4    C1      20.027534   19.729637   24.455857 C.3        1 MOL1         0.0209
       5    H3      20.429156   20.699534   24.151619 H          1 MOL1         0.0967
       6    H4      19.124792   19.533387   23.873316 H          1 MOL1         0.0967
       7    C2      21.079934   18.638621   24.173013 C.3        1 MOL1        -0.1378
       8    H5      21.924035   18.775391   24.861774 H          1 MOL1         0.0993
       9    H6      20.657212   17.649868   24.393319 H          1 MOL1         0.0993
      10    C3      21.621199   18.653576   22.721013 C.3        1 MOL1        -0.1338
      11    H7      22.416635   17.898039   22.657837 H          1 MOL1         0.0993
      12    H8      22.108055   19.615114   22.507122 H          1 MOL1         0.0993
      13    C4      20.565044   18.330892   21.631393 C.3        1 MOL1        -0.1338
      14    H9      21.078243   17.844628   20.790104 H          1 MOL1         0.0993
      15    H10     19.843651   17.594556   22.011748 H          1 MOL1         0.0993
      16    C5      19.825489   19.576434   21.084690 C.3        1 MOL1        -0.1313
      17    H11     20.556449   20.295371   20.688935 H          1 MOL1         0.0993
      18    H12     19.282490   20.091191   21.885625 H          1 MOL1         0.0993
      19    C6      18.828560   19.199841   19.967927 C.3        1 MOL1        -0.2328
      20    H13     19.342366   18.721978   19.123621 H          1 MOL1         0.1004
      21    H14     18.316458   20.093311   19.587802 H          1 MOL1         0.1004
      22    H15     18.063412   18.505822   20.339527 H          1 MOL1         0.1004
      23    C7      18.842198   18.614938   26.368740 C.3        1 MOL1        -0.0781
      24    H16     19.481537   17.733741   26.285930 H          1 MOL1         0.0978
      25    H17     18.535646   18.749569   27.408441 H          1 MOL1         0.0978
      26    H18     17.959640   18.493648   25.736910 H          1 MOL1         0.0978
@<TRIPOS>BOND
    1     1     2    1
    2     1     3    1
    3     1     4    1
    4     4     5    1
    5     4     6    1
    6     4     7    1
    7     7     8    1
    8     7     9    1
    9     7    10    1
   10    10    11    1
   11    10    12    1
   12    10    13    1
   13    13    14    1
   14    13    15    1
   15    13    16    1
   16    16    17    1
   17    16    18    1
   18    16    19    1
   19    19    20    1
   20    19    21    1
   21    19    22    1
   22     1    23    1
   23    23    24    1
   24    23    25    1
   25    23    26    1
@<TRIPOS>SUBSTRUCTURE
       1 MOL1            1 RESIDUE      1      MOL     
@<SCITEGIC>MOL_PROPERTY
VM2 Rank
SciTegic.value.IntegerValue
114

@<SCITEGIC>MOL_PROPERTY
Conf_Id
SciTegic.value.IntegerValue
1479

@<SCITEGIC>MOL_PROPERTY
Probability
SciTegic.value.DoubleValue
0.04

@<SCITEGIC>MOL_PROPERTY
Sum Probability
SciTegic.value.DoubleValue
98.95

@<SCITEGIC>MOL_PROPERTY
Delta G
SciTegic.value.DoubleValue
3.121

@<SCITEGIC>MOL_PROPERTY
G
SciTegic.value.DoubleValue
78.587

@<SCITEGIC>MOL_PROPERTY
E
SciTegic.value.DoubleValue
46.170

@<SCITEGIC>MOL_PROPERTY
-TS
SciTegic.value.DoubleValue
32.417

@<SCITEGIC>MOL_PROPERTY
U+W
SciTegic.value.DoubleValue
24.709

@<SCITEGIC>MOL_PROPERTY
U
SciTegic.value.DoubleValue
74.305

@<SCITEGIC>MOL_PROPERTY
W
SciTegic.value.DoubleValue
-49.597

@<SCITEGIC>MOL_PROPERTY
W(PB)
SciTegic.value.DoubleValue
-51.865

@<SCITEGIC>MOL_PROPERTY
W(SA)
SciTegic.value.DoubleValue
2.269

@<SCITEGIC>MOL_PROPERTY
Valence
SciTegic.value.DoubleValue
4.513

@<SCITEGIC>MOL_PROPERTY
Coulomb
SciTegic.value.DoubleValue
69.361

@<SCITEGIC>MOL_PROPERTY
VdW
SciTegic.value.DoubleValue
0.431

@<SCITEGIC>MOL_PROPERTY
VdW6
SciTegic.value.DoubleValue
-7.509

@<SCITEGIC>MOL_PROPERTY
VdW12
SciTegic.value.DoubleValue
7.941

@<SCITEGIC>MOL_PROPERTY
Bond
SciTegic.value.DoubleValue
0.240

@<SCITEGIC>MOL_PROPERTY
Angle
SciTegic.value.DoubleValue
1.205

@<SCITEGIC>MOL_PROPERTY
Pdih
SciTegic.value.DoubleValue
3.068

@<SCITEGIC>MOL_PROPERTY
Idih
SciTegic.value.DoubleValue
0.000

@<SCITEGIC>MOL_PROPERTY
Tether
SciTegic.value.DoubleValue
0.000

@<TRIPOS>MOLECULE
guest-s12_vm2.mol2 : vm2 ligand conformer 115
          26          25           1
SMALL
USER_CHARGES
 
@<TRIPOS>ATOM
       1    N1      20.132385   19.899186   25.932643 N.4        1 MOL1        -0.4857
       2    H1      19.249025   19.871627   26.464929 H          1 MOL1         0.3650
       3    H2      20.513540   20.844317   26.097874 H          1 MOL1         0.3650
       4    C1      19.858468   19.712182   24.449913 C.3        1 MOL1         0.0209
       5    H3      20.820794   19.708654   23.933459 H          1 MOL1         0.0967
       6    H4      19.289556   20.581808   24.111314 H          1 MOL1         0.0967
       7    C2      19.073487   18.431329   24.101942 C.3        1 MOL1        -0.1378
       8    H5      19.672795   17.548163   24.358281 H          1 MOL1         0.0993
       9    H6      18.173230   18.387766   24.729032 H          1 MOL1         0.0993
      10    C3      18.643354   18.346081   22.615599 C.3        1 MOL1        -0.1338
      11    H7      17.986677   19.189564   22.361340 H          1 MOL1         0.0993
      12    H8      18.025239   17.444599   22.502409 H          1 MOL1         0.0993
      13    C4      19.816601   18.253633   21.604755 C.3        1 MOL1        -0.1338
      14    H9      20.644610   17.677039   22.039738 H          1 MOL1         0.0993
      15    H10     19.473377   17.679214   20.733071 H          1 MOL1         0.0993
      16    C5      20.323005   19.627814   21.102383 C.3        1 MOL1        -0.1313
      17    H11     20.692409   20.236480   21.935679 H          1 MOL1         0.0993
      18    H12     19.490277   20.185576   20.651538 H          1 MOL1         0.0993
      19    C6      21.451245   19.470655   20.060640 C.3        1 MOL1        -0.2328
      20    H13     21.795724   20.452550   19.711001 H          1 MOL1         0.1004
      21    H14     21.105861   18.904383   19.185856 H          1 MOL1         0.1004
      22    H15     22.313951   18.944424   20.489614 H          1 MOL1         0.1004
      23    C7      21.109455   18.849121   26.449124 C.3        1 MOL1        -0.0781
      24    H16     22.040237   18.915163   25.881576 H          1 MOL1         0.0978
      25    H17     21.308451   19.035947   27.506751 H          1 MOL1         0.0978
      26    H18     20.670892   17.856583   26.328079 H          1 MOL1         0.0978
@<TRIPOS>BOND
    1     1     2    1
    2     1     3    1
    3     1     4    1
    4     4     5    1
    5     4     6    1
    6     4     7    1
    7     7     8    1
    8     7     9    1
    9     7    10    1
   10    10    11    1
   11    10    12    1
   12    10    13    1
   13    13    14    1
   14    13    15    1
   15    13    16    1
   16    16    17    1
   17    16    18    1
   18    16    19    1
   19    19    20    1
   20    19    21    1
   21    19    22    1
   22     1    23    1
   23    23    24    1
   24    23    25    1
   25    23    26    1
@<TRIPOS>SUBSTRUCTURE
       1 MOL1            1 RESIDUE      1      MOL     
@<SCITEGIC>MOL_PROPERTY
VM2 Rank
SciTegic.value.IntegerValue
115

@<SCITEGIC>MOL_PROPERTY
Conf_Id
SciTegic.value.IntegerValue
555

@<SCITEGIC>MOL_PROPERTY
Probability
SciTegic.value.DoubleValue
0.04

@<SCITEGIC>MOL_PROPERTY
Sum Probability
SciTegic.value.DoubleValue
98.99

@<SCITEGIC>MOL_PROPERTY
Delta G
SciTegic.value.DoubleValue
3.134

@<SCITEGIC>MOL_PROPERTY
G
SciTegic.value.DoubleValue
78.600

@<SCITEGIC>MOL_PROPERTY
E
SciTegic.value.DoubleValue
46.184

@<SCITEGIC>MOL_PROPERTY
-TS
SciTegic.value.DoubleValue
32.416

@<SCITEGIC>MOL_PROPERTY
U+W
SciTegic.value.DoubleValue
24.722

@<SCITEGIC>MOL_PROPERTY
U
SciTegic.value.DoubleValue
74.305

@<SCITEGIC>MOL_PROPERTY
W
SciTegic.value.DoubleValue
-49.584

@<SCITEGIC>MOL_PROPERTY
W(PB)
SciTegic.value.DoubleValue
-51.861

@<SCITEGIC>MOL_PROPERTY
W(SA)
SciTegic.value.DoubleValue
2.278

@<SCITEGIC>MOL_PROPERTY
Valence
SciTegic.value.DoubleValue
4.513

@<SCITEGIC>MOL_PROPERTY
Coulomb
SciTegic.value.DoubleValue
69.361

@<SCITEGIC>MOL_PROPERTY
VdW
SciTegic.value.DoubleValue
0.431

@<SCITEGIC>MOL_PROPERTY
VdW6
SciTegic.value.DoubleValue
-7.509

@<SCITEGIC>MOL_PROPERTY
VdW12
SciTegic.value.DoubleValue
7.940

@<SCITEGIC>MOL_PROPERTY
Bond
SciTegic.value.DoubleValue
0.240

@<SCITEGIC>MOL_PROPERTY
Angle
SciTegic.value.DoubleValue
1.206

@<SCITEGIC>MOL_PROPERTY
Pdih
SciTegic.value.DoubleValue
3.067

@<SCITEGIC>MOL_PROPERTY
Idih
SciTegic.value.DoubleValue
0.000

@<SCITEGIC>MOL_PROPERTY
Tether
SciTegic.value.DoubleValue
0.000

@<TRIPOS>MOLECULE
guest-s12_vm2.mol2 : vm2 ligand conformer 116
          26          25           1
SMALL
USER_CHARGES
 
@<TRIPOS>ATOM
       1    N1      19.730865   19.665542   25.990860 N.4        1 MOL1        -0.4857
       2    H1      19.448253   18.911587   26.635891 H          1 MOL1         0.3650
       3    H2      19.246333   20.508564   26.337835 H          1 MOL1         0.3650
       4    C1      19.262543   19.353570   24.579806 C.3        1 MOL1         0.0209
       5    H3      19.622654   20.150645   23.927679 H          1 MOL1         0.0967
       6    H4      18.170230   19.391159   24.584854 H          1 MOL1         0.0967
       7    C2      19.711248   17.974398   24.048410 C.3        1 MOL1        -0.1378
       8    H5      20.805640   17.891798   24.055665 H          1 MOL1         0.0993
       9    H6      19.338372   17.206660   24.739194 H          1 MOL1         0.0993
      10    C3      19.169558   17.667681   22.629336 C.3        1 MOL1        -0.1338
      11    H7      18.148857   18.060626   22.522849 H          1 MOL1         0.0993
      12    H8      19.080190   16.577405   22.525348 H          1 MOL1         0.0993
      13    C4      20.060917   18.176952   21.466580 C.3        1 MOL1        -0.1338
      14    H9      21.043785   17.688515   21.518644 H          1 MOL1         0.0993
      15    H10     19.608535   17.849598   20.520199 H          1 MOL1         0.0993
      16    C5      20.253116   19.710742   21.426251 C.3        1 MOL1        -0.1313
      17    H11     20.841085   20.036851   22.294060 H          1 MOL1         0.0993
      18    H12     19.276822   20.211637   21.486546 H          1 MOL1         0.0993
      19    C6      20.980315   20.160084   20.140874 C.3        1 MOL1        -0.2328
      20    H13     20.405994   19.888029   19.245705 H          1 MOL1         0.1004
      21    H14     21.971899   19.695032   20.065312 H          1 MOL1         0.1004
      22    H15     21.117734   21.249155   20.133813 H          1 MOL1         0.1004
      23    C7      21.239438   19.881032   26.034883 C.3        1 MOL1        -0.0781
      24    H16     21.505343   20.696146   25.358361 H          1 MOL1         0.0978
      25    H17     21.533728   20.137848   27.054943 H          1 MOL1         0.0978
      26    H18     21.745382   18.963766   25.727286 H          1 MOL1         0.0978
@<TRIPOS>BOND
    1     1     2    1
    2     1     3    1
    3     1     4    1
    4     4     5    1
    5     4     6    1
    6     4     7    1
    7     7     8    1
    8     7     9    1
    9     7    10    1
   10    10    11    1
   11    10    12    1
   12    10    13    1
   13    13    14    1
   14    13    15    1
   15    13    16    1
   16    16    17    1
   17    16    18    1
   18    16    19    1
   19    19    20    1
   20    19    21    1
   21    19    22    1
   22     1    23    1
   23    23    24    1
   24    23    25    1
   25    23    26    1
@<TRIPOS>SUBSTRUCTURE
       1 MOL1            1 RESIDUE      1      MOL     
@<SCITEGIC>MOL_PROPERTY
VM2 Rank
SciTegic.value.IntegerValue
116

@<SCITEGIC>MOL_PROPERTY
Conf_Id
SciTegic.value.IntegerValue
1278

@<SCITEGIC>MOL_PROPERTY
Probability
SciTegic.value.DoubleValue
0.04

@<SCITEGIC>MOL_PROPERTY
Sum Probability
SciTegic.value.DoubleValue
99.02

@<SCITEGIC>MOL_PROPERTY
Delta G
SciTegic.value.DoubleValue
3.140

@<SCITEGIC>MOL_PROPERTY
G
SciTegic.value.DoubleValue
78.606

@<SCITEGIC>MOL_PROPERTY
E
SciTegic.value.DoubleValue
45.958

@<SCITEGIC>MOL_PROPERTY
-TS
SciTegic.value.DoubleValue
32.648

@<SCITEGIC>MOL_PROPERTY
U+W
SciTegic.value.DoubleValue
24.496

@<SCITEGIC>MOL_PROPERTY
U
SciTegic.value.DoubleValue
74.229

@<SCITEGIC>MOL_PROPERTY
W
SciTegic.value.DoubleValue
-49.733

@<SCITEGIC>MOL_PROPERTY
W(PB)
SciTegic.value.DoubleValue
-51.984

@<SCITEGIC>MOL_PROPERTY
W(SA)
SciTegic.value.DoubleValue
2.251

@<SCITEGIC>MOL_PROPERTY
Valence
SciTegic.value.DoubleValue
4.376

@<SCITEGIC>MOL_PROPERTY
Coulomb
SciTegic.value.DoubleValue
69.549

@<SCITEGIC>MOL_PROPERTY
VdW
SciTegic.value.DoubleValue
0.303

@<SCITEGIC>MOL_PROPERTY
VdW6
SciTegic.value.DoubleValue
-7.808

@<SCITEGIC>MOL_PROPERTY
VdW12
SciTegic.value.DoubleValue
8.111

@<SCITEGIC>MOL_PROPERTY
Bond
SciTegic.value.DoubleValue
0.233

@<SCITEGIC>MOL_PROPERTY
Angle
SciTegic.value.DoubleValue
1.219

@<SCITEGIC>MOL_PROPERTY
Pdih
SciTegic.value.DoubleValue
2.925

@<SCITEGIC>MOL_PROPERTY
Idih
SciTegic.value.DoubleValue
0.000

@<SCITEGIC>MOL_PROPERTY
Tether
SciTegic.value.DoubleValue
0.000

@<TRIPOS>MOLECULE
guest-s12_vm2.mol2 : vm2 ligand conformer 117
          26          25           1
SMALL
USER_CHARGES
 
@<TRIPOS>ATOM
       1    N1      20.560215   18.623600   25.314936 N.4        1 MOL1        -0.4857
       2    H1      21.069017   18.562752   24.421485 H          1 MOL1         0.3650
       3    H2      20.302978   17.653063   25.553096 H          1 MOL1         0.3650
       4    C1      19.310557   19.467150   25.149031 C.3        1 MOL1         0.0209
       5    H3      19.612308   20.496933   24.942068 H          1 MOL1         0.0967
       6    H4      18.789122   19.452783   26.109488 H          1 MOL1         0.0967
       7    C2      18.349988   18.972102   24.047260 C.3        1 MOL1        -0.1378
       8    H5      18.267250   17.877729   24.083829 H          1 MOL1         0.0993
       9    H6      17.348088   19.357363   24.278817 H          1 MOL1         0.0993
      10    C3      18.719528   19.438800   22.615759 C.3        1 MOL1        -0.1338
      11    H7      18.721008   20.537080   22.579009 H          1 MOL1         0.0993
      12    H8      17.922825   19.111461   21.933383 H          1 MOL1         0.0993
      13    C4      20.075953   18.904555   22.096984 C.3        1 MOL1        -0.1338
      14    H9      20.896007   19.345190   22.677644 H          1 MOL1         0.0993
      15    H10     20.122135   17.815308   22.234285 H          1 MOL1         0.0993
      16    C5      20.291643   19.241764   20.604760 C.3        1 MOL1        -0.1313
      17    H11     20.239239   20.329888   20.458746 H          1 MOL1         0.0993
      18    H12     19.483415   18.802306   20.003383 H          1 MOL1         0.0993
      19    C6      21.651201   18.721078   20.091465 C.3        1 MOL1        -0.2328
      20    H13     21.785302   18.968584   19.030432 H          1 MOL1         0.1004
      21    H14     21.720639   17.630249   20.193812 H          1 MOL1         0.1004
      22    H15     22.482971   19.170609   20.649368 H          1 MOL1         0.1004
      23    C7      21.448914   19.220951   26.396805 C.3        1 MOL1        -0.0781
      24    H16     20.899019   19.244921   27.340187 H          1 MOL1         0.0978
      25    H17     22.343500   18.603952   26.506988 H          1 MOL1         0.0978
      26    H18     21.733383   20.235284   26.108473 H          1 MOL1         0.0978
@<TRIPOS>BOND
    1     1     2    1
    2     1     3    1
    3     1     4    1
    4     4     5    1
    5     4     6    1
    6     4     7    1
    7     7     8    1
    8     7     9    1
    9     7    10    1
   10    10    11    1
   11    10    12    1
   12    10    13    1
   13    13    14    1
   14    13    15    1
   15    13    16    1
   16    16    17    1
   17    16    18    1
   18    16    19    1
   19    19    20    1
   20    19    21    1
   21    19    22    1
   22     1    23    1
   23    23    24    1
   24    23    25    1
   25    23    26    1
@<TRIPOS>SUBSTRUCTURE
       1 MOL1            1 RESIDUE      1      MOL     
@<SCITEGIC>MOL_PROPERTY
VM2 Rank
SciTegic.value.IntegerValue
117

@<SCITEGIC>MOL_PROPERTY
Conf_Id
SciTegic.value.IntegerValue
937

@<SCITEGIC>MOL_PROPERTY
Probability
SciTegic.value.DoubleValue
0.03

@<SCITEGIC>MOL_PROPERTY
Sum Probability
SciTegic.value.DoubleValue
99.06

@<SCITEGIC>MOL_PROPERTY
Delta G
SciTegic.value.DoubleValue
3.148

@<SCITEGIC>MOL_PROPERTY
G
SciTegic.value.DoubleValue
78.614

@<SCITEGIC>MOL_PROPERTY
E
SciTegic.value.DoubleValue
46.269

@<SCITEGIC>MOL_PROPERTY
-TS
SciTegic.value.DoubleValue
32.345

@<SCITEGIC>MOL_PROPERTY
U+W
SciTegic.value.DoubleValue
24.807

@<SCITEGIC>MOL_PROPERTY
U
SciTegic.value.DoubleValue
73.983

@<SCITEGIC>MOL_PROPERTY
W
SciTegic.value.DoubleValue
-49.176

@<SCITEGIC>MOL_PROPERTY
W(PB)
SciTegic.value.DoubleValue
-51.451

@<SCITEGIC>MOL_PROPERTY
W(SA)
SciTegic.value.DoubleValue
2.276

@<SCITEGIC>MOL_PROPERTY
Valence
SciTegic.value.DoubleValue
3.347

@<SCITEGIC>MOL_PROPERTY
Coulomb
SciTegic.value.DoubleValue
70.654

@<SCITEGIC>MOL_PROPERTY
VdW
SciTegic.value.DoubleValue
-0.018

@<SCITEGIC>MOL_PROPERTY
VdW6
SciTegic.value.DoubleValue
-6.980

@<SCITEGIC>MOL_PROPERTY
VdW12
SciTegic.value.DoubleValue
6.962

@<SCITEGIC>MOL_PROPERTY
Bond
SciTegic.value.DoubleValue
0.176

@<SCITEGIC>MOL_PROPERTY
Angle
SciTegic.value.DoubleValue
0.935

@<SCITEGIC>MOL_PROPERTY
Pdih
SciTegic.value.DoubleValue
2.235

@<SCITEGIC>MOL_PROPERTY
Idih
SciTegic.value.DoubleValue
0.000

@<SCITEGIC>MOL_PROPERTY
Tether
SciTegic.value.DoubleValue
0.000

@<TRIPOS>MOLECULE
guest-s12_vm2.mol2 : vm2 ligand conformer 118
          26          25           1
SMALL
USER_CHARGES
 
@<TRIPOS>ATOM
       1    N1      20.347111   19.334673   25.761942 N.4        1 MOL1        -0.4857
       2    H1      21.163310   18.713276   25.866529 H          1 MOL1         0.3650
       3    H2      20.099796   19.611823   26.724974 H          1 MOL1         0.3650
       4    C1      19.182016   18.576084   25.144900 C.3        1 MOL1         0.0209
       5    H3      18.499538   19.299491   24.692799 H          1 MOL1         0.0967
       6    H4      18.652651   18.094162   25.970845 H          1 MOL1         0.0967
       7    C2      19.567246   17.478898   24.125103 C.3        1 MOL1        -0.1378
       8    H5      20.244098   16.762973   24.609657 H          1 MOL1         0.0993
       9    H6      18.661959   16.912105   23.870400 H          1 MOL1         0.0993
      10    C3      20.218685   17.991970   22.817353 C.3        1 MOL1        -0.1338
      11    H7      20.457990   17.126889   22.183808 H          1 MOL1         0.0993
      12    H8      21.178440   18.467912   23.050263 H          1 MOL1         0.0993
      13    C4      19.304683   18.959565   22.023118 C.3        1 MOL1        -0.1338
      14    H9      18.342582   18.464537   21.832097 H          1 MOL1         0.0993
      15    H10     19.077649   19.850408   22.622808 H          1 MOL1         0.0993
      16    C5      19.909208   19.401516   20.668776 C.3        1 MOL1        -0.1313
      17    H11     19.153630   19.977883   20.116738 H          1 MOL1         0.0993
      18    H12     20.131379   18.518310   20.053668 H          1 MOL1         0.0993
      19    C6      21.181942   20.266029   20.819165 C.3        1 MOL1        -0.2328
      20    H13     20.991507   21.143319   21.450819 H          1 MOL1         0.1004
      21    H14     21.518882   20.626435   19.838613 H          1 MOL1         0.1004
      22    H15     22.008080   19.695826   21.261380 H          1 MOL1         0.1004
      23    C7      20.697110   20.581264   24.956644 C.3        1 MOL1        -0.0781
      24    H16     19.821476   21.232084   24.907522 H          1 MOL1         0.0978
      25    H17     21.517386   21.106179   25.451262 H          1 MOL1         0.0978
      26    H18     21.000299   20.295631   23.948734 H          1 MOL1         0.0978
@<TRIPOS>BOND
    1     1     2    1
    2     1     3    1
    3     1     4    1
    4     4     5    1
    5     4     6    1
    6     4     7    1
    7     7     8    1
    8     7     9    1
    9     7    10    1
   10    10    11    1
   11    10    12    1
   12    10    13    1
   13    13    14    1
   14    13    15    1
   15    13    16    1
   16    16    17    1
   17    16    18    1
   18    16    19    1
   19    19    20    1
   20    19    21    1
   21    19    22    1
   22     1    23    1
   23    23    24    1
   24    23    25    1
   25    23    26    1
@<TRIPOS>SUBSTRUCTURE
       1 MOL1            1 RESIDUE      1      MOL     
@<SCITEGIC>MOL_PROPERTY
VM2 Rank
SciTegic.value.IntegerValue
118

@<SCITEGIC>MOL_PROPERTY
Conf_Id
SciTegic.value.IntegerValue
479

@<SCITEGIC>MOL_PROPERTY
Probability
SciTegic.value.DoubleValue
0.03

@<SCITEGIC>MOL_PROPERTY
Sum Probability
SciTegic.value.DoubleValue
99.09

@<SCITEGIC>MOL_PROPERTY
Delta G
SciTegic.value.DoubleValue
3.152

@<SCITEGIC>MOL_PROPERTY
G
SciTegic.value.DoubleValue
78.618

@<SCITEGIC>MOL_PROPERTY
E
SciTegic.value.DoubleValue
45.492

@<SCITEGIC>MOL_PROPERTY
-TS
SciTegic.value.DoubleValue
33.127

@<SCITEGIC>MOL_PROPERTY
U+W
SciTegic.value.DoubleValue
24.030

@<SCITEGIC>MOL_PROPERTY
U
SciTegic.value.DoubleValue
74.177

@<SCITEGIC>MOL_PROPERTY
W
SciTegic.value.DoubleValue
-50.147

@<SCITEGIC>MOL_PROPERTY
W(PB)
SciTegic.value.DoubleValue
-52.281

@<SCITEGIC>MOL_PROPERTY
W(SA)
SciTegic.value.DoubleValue
2.134

@<SCITEGIC>MOL_PROPERTY
Valence
SciTegic.value.DoubleValue
4.524

@<SCITEGIC>MOL_PROPERTY
Coulomb
SciTegic.value.DoubleValue
69.760

@<SCITEGIC>MOL_PROPERTY
VdW
SciTegic.value.DoubleValue
-0.108

@<SCITEGIC>MOL_PROPERTY
VdW6
SciTegic.value.DoubleValue
-9.141

@<SCITEGIC>MOL_PROPERTY
VdW12
SciTegic.value.DoubleValue
9.034

@<SCITEGIC>MOL_PROPERTY
Bond
SciTegic.value.DoubleValue
0.254

@<SCITEGIC>MOL_PROPERTY
Angle
SciTegic.value.DoubleValue
1.400

@<SCITEGIC>MOL_PROPERTY
Pdih
SciTegic.value.DoubleValue
2.871

@<SCITEGIC>MOL_PROPERTY
Idih
SciTegic.value.DoubleValue
0.000

@<SCITEGIC>MOL_PROPERTY
Tether
SciTegic.value.DoubleValue
0.000

@<TRIPOS>MOLECULE
guest-s12_vm2.mol2 : vm2 ligand conformer 119
          26          25           1
SMALL
USER_CHARGES
 
@<TRIPOS>ATOM
       1    N1      20.241354   18.917061   25.922704 N.4        1 MOL1        -0.4857
       2    H1      20.826389   18.482741   26.653822 H          1 MOL1         0.3650
       3    H2      19.297861   18.969076   26.335644 H          1 MOL1         0.3650
       4    C1      20.231078   18.020247   24.693952 C.3        1 MOL1         0.0209
       5    H3      20.337099   16.995771   25.059825 H          1 MOL1         0.0967
       6    H4      21.112249   18.248016   24.089556 H          1 MOL1         0.0967
       7    C2      18.948035   18.082733   23.832989 C.3        1 MOL1        -0.1378
       8    H5      18.967579   17.245329   23.124101 H          1 MOL1         0.0993
       9    H6      18.076707   17.901942   24.475993 H          1 MOL1         0.0993
      10    C3      18.737646   19.404206   23.049186 C.3        1 MOL1        -0.1338
      11    H7      18.533110   20.217832   23.756626 H          1 MOL1         0.0993
      12    H8      17.827013   19.311000   22.441576 H          1 MOL1         0.0993
      13    C4      19.916224   19.811870   22.127040 C.3        1 MOL1        -0.1338
      14    H9      19.671332   20.774588   21.657529 H          1 MOL1         0.0993
      15    H10     20.820432   19.987925   22.723785 H          1 MOL1         0.0993
      16    C5      20.220896   18.775987   21.019268 C.3        1 MOL1        -0.1313
      17    H11     19.308146   18.569206   20.443198 H          1 MOL1         0.0993
      18    H12     20.537378   17.824585   21.467180 H          1 MOL1         0.0993
      19    C6      21.327540   19.272262   20.064389 C.3        1 MOL1        -0.2328
      20    H13     21.030522   20.203818   19.565239 H          1 MOL1         0.1004
      21    H14     21.532696   18.524840   19.287043 H          1 MOL1         0.1004
      22    H15     22.263153   19.458718   20.607563 H          1 MOL1         0.1004
      23    C7      20.785227   20.305634   25.607473 C.3        1 MOL1        -0.0781
      24    H16     20.140881   20.795752   24.877041 H          1 MOL1         0.0978
      25    H17     20.810517   20.895113   26.526666 H          1 MOL1         0.0978
      26    H18     21.795713   20.210699   25.204228 H          1 MOL1         0.0978
@<TRIPOS>BOND
    1     1     2    1
    2     1     3    1
    3     1     4    1
    4     4     5    1
    5     4     6    1
    6     4     7    1
    7     7     8    1
    8     7     9    1
    9     7    10    1
   10    10    11    1
   11    10    12    1
   12    10    13    1
   13    13    14    1
   14    13    15    1
   15    13    16    1
   16    16    17    1
   17    16    18    1
   18    16    19    1
   19    19    20    1
   20    19    21    1
   21    19    22    1
   22     1    23    1
   23    23    24    1
   24    23    25    1
   25    23    26    1
@<TRIPOS>SUBSTRUCTURE
       1 MOL1            1 RESIDUE      1      MOL     
@<SCITEGIC>MOL_PROPERTY
VM2 Rank
SciTegic.value.IntegerValue
119

@<SCITEGIC>MOL_PROPERTY
Conf_Id
SciTegic.value.IntegerValue
573

@<SCITEGIC>MOL_PROPERTY
Probability
SciTegic.value.DoubleValue
0.03

@<SCITEGIC>MOL_PROPERTY
Sum Probability
SciTegic.value.DoubleValue
99.13

@<SCITEGIC>MOL_PROPERTY
Delta G
SciTegic.value.DoubleValue
3.159

@<SCITEGIC>MOL_PROPERTY
G
SciTegic.value.DoubleValue
78.625

@<SCITEGIC>MOL_PROPERTY
E
SciTegic.value.DoubleValue
45.530

@<SCITEGIC>MOL_PROPERTY
-TS
SciTegic.value.DoubleValue
33.095

@<SCITEGIC>MOL_PROPERTY
U+W
SciTegic.value.DoubleValue
24.068

@<SCITEGIC>MOL_PROPERTY
U
SciTegic.value.DoubleValue
74.107

@<SCITEGIC>MOL_PROPERTY
W
SciTegic.value.DoubleValue
-50.038

@<SCITEGIC>MOL_PROPERTY
W(PB)
SciTegic.value.DoubleValue
-52.240

@<SCITEGIC>MOL_PROPERTY
W(SA)
SciTegic.value.DoubleValue
2.201

@<SCITEGIC>MOL_PROPERTY
Valence
SciTegic.value.DoubleValue
4.500

@<SCITEGIC>MOL_PROPERTY
Coulomb
SciTegic.value.DoubleValue
69.634

@<SCITEGIC>MOL_PROPERTY
VdW
SciTegic.value.DoubleValue
-0.027

@<SCITEGIC>MOL_PROPERTY
VdW6
SciTegic.value.DoubleValue
-8.973

@<SCITEGIC>MOL_PROPERTY
VdW12
SciTegic.value.DoubleValue
8.946

@<SCITEGIC>MOL_PROPERTY
Bond
SciTegic.value.DoubleValue
0.259

@<SCITEGIC>MOL_PROPERTY
Angle
SciTegic.value.DoubleValue
1.562

@<SCITEGIC>MOL_PROPERTY
Pdih
SciTegic.value.DoubleValue
2.679

@<SCITEGIC>MOL_PROPERTY
Idih
SciTegic.value.DoubleValue
0.000

@<SCITEGIC>MOL_PROPERTY
Tether
SciTegic.value.DoubleValue
0.000

@<TRIPOS>MOLECULE
guest-s12_vm2.mol2 : vm2 ligand conformer 120
          26          25           1
SMALL
USER_CHARGES
 
@<TRIPOS>ATOM
       1    N1      19.713370   18.862346   25.904066 N.4        1 MOL1        -0.4857
       2    H1      20.594899   19.104226   26.381354 H          1 MOL1         0.3650
       3    H2      19.180551   18.311898   26.595837 H          1 MOL1         0.3650
       4    C1      19.993385   17.995523   24.685698 C.3        1 MOL1         0.0209
       5    H3      19.128625   18.041757   24.019598 H          1 MOL1         0.0967
       6    H4      20.074743   16.968534   25.050839 H          1 MOL1         0.0967
       7    C2      21.293165   18.326334   23.915962 C.3        1 MOL1        -0.1378
       8    H5      22.135993   18.323613   24.619514 H          1 MOL1         0.0993
       9    H6      21.495493   17.507933   23.213515 H          1 MOL1         0.0993
      10    C3      21.281950   19.668524   23.139240 C.3        1 MOL1        -0.1338
      11    H7      22.232517   19.768759   22.597478 H          1 MOL1         0.0993
      12    H8      21.265052   20.501629   23.853343 H          1 MOL1         0.0993
      13    C4      20.112195   19.832155   22.134016 C.3        1 MOL1        -0.1338
      14    H9      19.151630   19.814257   22.664760 H          1 MOL1         0.0993
      15    H10     20.186278   20.828093   21.675916 H          1 MOL1         0.0993
      16    C5      20.105113   18.763996   21.015082 C.3        1 MOL1        -0.1313
      17    H11     19.960269   17.764590   21.446543 H          1 MOL1         0.0993
      18    H12     21.078905   18.753386   20.505826 H          1 MOL1         0.0993
      19    C6      18.989731   19.029414   19.981536 C.3        1 MOL1        -0.2328
      20    H13     18.000098   19.015737   20.456528 H          1 MOL1         0.1004
      21    H14     18.997380   18.261530   19.197132 H          1 MOL1         0.1004
      22    H15     19.123276   20.005759   19.497716 H          1 MOL1         0.1004
      23    C7      18.919091   20.111707   25.541402 C.3        1 MOL1        -0.0781
      24    H16     18.709284   20.676952   26.452180 H          1 MOL1         0.0978
      25    H17     19.498237   20.728877   24.853926 H          1 MOL1         0.0978
      26    H18     17.980251   19.813987   25.069548 H          1 MOL1         0.0978
@<TRIPOS>BOND
    1     1     2    1
    2     1     3    1
    3     1     4    1
    4     4     5    1
    5     4     6    1
    6     4     7    1
    7     7     8    1
    8     7     9    1
    9     7    10    1
   10    10    11    1
   11    10    12    1
   12    10    13    1
   13    13    14    1
   14    13    15    1
   15    13    16    1
   16    16    17    1
   17    16    18    1
   18    16    19    1
   19    19    20    1
   20    19    21    1
   21    19    22    1
   22     1    23    1
   23    23    24    1
   24    23    25    1
   25    23    26    1
@<TRIPOS>SUBSTRUCTURE
       1 MOL1            1 RESIDUE      1      MOL     
@<SCITEGIC>MOL_PROPERTY
VM2 Rank
SciTegic.value.IntegerValue
120

@<SCITEGIC>MOL_PROPERTY
Conf_Id
SciTegic.value.IntegerValue
852

@<SCITEGIC>MOL_PROPERTY
Probability
SciTegic.value.DoubleValue
0.03

@<SCITEGIC>MOL_PROPERTY
Sum Probability
SciTegic.value.DoubleValue
99.16

@<SCITEGIC>MOL_PROPERTY
Delta G
SciTegic.value.DoubleValue
3.183

@<SCITEGIC>MOL_PROPERTY
G
SciTegic.value.DoubleValue
78.649

@<SCITEGIC>MOL_PROPERTY
E
SciTegic.value.DoubleValue
45.554

@<SCITEGIC>MOL_PROPERTY
-TS
SciTegic.value.DoubleValue
33.095

@<SCITEGIC>MOL_PROPERTY
U+W
SciTegic.value.DoubleValue
24.092

@<SCITEGIC>MOL_PROPERTY
U
SciTegic.value.DoubleValue
74.107

@<SCITEGIC>MOL_PROPERTY
W
SciTegic.value.DoubleValue
-50.015

@<SCITEGIC>MOL_PROPERTY
W(PB)
SciTegic.value.DoubleValue
-52.190

@<SCITEGIC>MOL_PROPERTY
W(SA)
SciTegic.value.DoubleValue
2.176

@<SCITEGIC>MOL_PROPERTY
Valence
SciTegic.value.DoubleValue
4.500

@<SCITEGIC>MOL_PROPERTY
Coulomb
SciTegic.value.DoubleValue
69.634

@<SCITEGIC>MOL_PROPERTY
VdW
SciTegic.value.DoubleValue
-0.027

@<SCITEGIC>MOL_PROPERTY
VdW6
SciTegic.value.DoubleValue
-8.973

@<SCITEGIC>MOL_PROPERTY
VdW12
SciTegic.value.DoubleValue
8.946

@<SCITEGIC>MOL_PROPERTY
Bond
SciTegic.value.DoubleValue
0.259

@<SCITEGIC>MOL_PROPERTY
Angle
SciTegic.value.DoubleValue
1.561

@<SCITEGIC>MOL_PROPERTY
Pdih
SciTegic.value.DoubleValue
2.679

@<SCITEGIC>MOL_PROPERTY
Idih
SciTegic.value.DoubleValue
0.000

@<SCITEGIC>MOL_PROPERTY
Tether
SciTegic.value.DoubleValue
0.000

@<TRIPOS>MOLECULE
guest-s12_vm2.mol2 : vm2 ligand conformer 121
          26          25           1
SMALL
USER_CHARGES
 
@<TRIPOS>ATOM
       1    N1      20.476835   18.690142   25.937528 N.4        1 MOL1        -0.4857
       2    H1      21.071724   17.870765   25.740683 H          1 MOL1         0.3650
       3    H2      20.307351   18.652550   26.955152 H          1 MOL1         0.3650
       4    C1      19.146966   18.561444   25.206894 C.3        1 MOL1         0.0209
       5    H3      18.542632   19.444974   25.426769 H          1 MOL1         0.0967
       6    H4      18.642268   17.697062   25.646087 H          1 MOL1         0.0967
       7    C2      19.233769   18.341217   23.680013 C.3        1 MOL1        -0.1378
       8    H5      20.126566   17.748617   23.444429 H          1 MOL1         0.0993
       9    H6      18.369892   17.735269   23.376633 H          1 MOL1         0.0993
      10    C3      19.212326   19.661749   22.869051 C.3        1 MOL1        -0.1338
      11    H7      20.088521   20.275665   23.104490 H          1 MOL1         0.0993
      12    H8      18.340397   20.254062   23.179021 H          1 MOL1         0.0993
      13    C4      19.133146   19.442642   21.336011 C.3        1 MOL1        -0.1338
      14    H9      18.189377   18.934405   21.094757 H          1 MOL1         0.0993
      15    H10     19.080404   20.422919   20.842554 H          1 MOL1         0.0993
      16    C5      20.306377   18.635970   20.722591 C.3        1 MOL1        -0.1313
      17    H11     20.145114   18.554275   19.638585 H          1 MOL1         0.0993
      18    H12     20.299770   17.606326   21.104519 H          1 MOL1         0.0993
      19    C6      21.691037   19.275707   20.972995 C.3        1 MOL1        -0.2328
      20    H13     21.715547   20.314732   20.619808 H          1 MOL1         0.1004
      21    H14     22.473121   18.720949   20.438747 H          1 MOL1         0.1004
      22    H15     21.950950   19.267882   22.038775 H          1 MOL1         0.1004
      23    C7      21.207543   19.981128   25.591917 C.3        1 MOL1        -0.0781
      24    H16     20.543477   20.829664   25.770157 H          1 MOL1         0.0978
      25    H17     22.094856   20.067707   26.222992 H          1 MOL1         0.0978
      26    H18     21.509096   19.954265   24.543657 H          1 MOL1         0.0978
@<TRIPOS>BOND
    1     1     2    1
    2     1     3    1
    3     1     4    1
    4     4     5    1
    5     4     6    1
    6     4     7    1
    7     7     8    1
    8     7     9    1
    9     7    10    1
   10    10    11    1
   11    10    12    1
   12    10    13    1
   13    13    14    1
   14    13    15    1
   15    13    16    1
   16    16    17    1
   17    16    18    1
   18    16    19    1
   19    19    20    1
   20    19    21    1
   21    19    22    1
   22     1    23    1
   23    23    24    1
   24    23    25    1
   25    23    26    1
@<TRIPOS>SUBSTRUCTURE
       1 MOL1            1 RESIDUE      1      MOL     
@<SCITEGIC>MOL_PROPERTY
VM2 Rank
SciTegic.value.IntegerValue
121

@<SCITEGIC>MOL_PROPERTY
Conf_Id
SciTegic.value.IntegerValue
1311

@<SCITEGIC>MOL_PROPERTY
Probability
SciTegic.value.DoubleValue
0.03

@<SCITEGIC>MOL_PROPERTY
Sum Probability
SciTegic.value.DoubleValue
99.19

@<SCITEGIC>MOL_PROPERTY
Delta G
SciTegic.value.DoubleValue
3.253

@<SCITEGIC>MOL_PROPERTY
G
SciTegic.value.DoubleValue
78.719

@<SCITEGIC>MOL_PROPERTY
E
SciTegic.value.DoubleValue
45.989

@<SCITEGIC>MOL_PROPERTY
-TS
SciTegic.value.DoubleValue
32.730

@<SCITEGIC>MOL_PROPERTY
U+W
SciTegic.value.DoubleValue
24.527

@<SCITEGIC>MOL_PROPERTY
U
SciTegic.value.DoubleValue
74.536

@<SCITEGIC>MOL_PROPERTY
W
SciTegic.value.DoubleValue
-50.009

@<SCITEGIC>MOL_PROPERTY
W(PB)
SciTegic.value.DoubleValue
-52.200

@<SCITEGIC>MOL_PROPERTY
W(SA)
SciTegic.value.DoubleValue
2.191

@<SCITEGIC>MOL_PROPERTY
Valence
SciTegic.value.DoubleValue
4.772

@<SCITEGIC>MOL_PROPERTY
Coulomb
SciTegic.value.DoubleValue
69.421

@<SCITEGIC>MOL_PROPERTY
VdW
SciTegic.value.DoubleValue
0.344

@<SCITEGIC>MOL_PROPERTY
VdW6
SciTegic.value.DoubleValue
-8.669

@<SCITEGIC>MOL_PROPERTY
VdW12
SciTegic.value.DoubleValue
9.013

@<SCITEGIC>MOL_PROPERTY
Bond
SciTegic.value.DoubleValue
0.278

@<SCITEGIC>MOL_PROPERTY
Angle
SciTegic.value.DoubleValue
1.581

@<SCITEGIC>MOL_PROPERTY
Pdih
SciTegic.value.DoubleValue
2.912

@<SCITEGIC>MOL_PROPERTY
Idih
SciTegic.value.DoubleValue
0.000

@<SCITEGIC>MOL_PROPERTY
Tether
SciTegic.value.DoubleValue
0.000

@<TRIPOS>MOLECULE
guest-s12_vm2.mol2 : vm2 ligand conformer 122
          26          25           1
SMALL
USER_CHARGES
 
@<TRIPOS>ATOM
       1    N1      20.472661   18.456198   25.773082 N.4        1 MOL1        -0.4857
       2    H1      21.103796   17.903169   25.173873 H          1 MOL1         0.3650
       3    H2      20.407143   17.922911   26.654522 H          1 MOL1         0.3650
       4    C1      19.092797   18.551975   25.141607 C.3        1 MOL1         0.0209
       5    H3      18.590862   19.434271   25.546468 H          1 MOL1         0.0967
       6    H4      18.535072   17.671795   25.471653 H          1 MOL1         0.0967
       7    C2      19.068575   18.579930   23.597040 C.3        1 MOL1        -0.1378
       8    H5      19.549894   17.670605   23.215361 H          1 MOL1         0.0993
       9    H6      18.020180   18.535726   23.273832 H          1 MOL1         0.0993
      10    C3      19.734790   19.834518   22.980563 C.3        1 MOL1        -0.1338
      11    H7      20.814619   19.818388   23.173028 H          1 MOL1         0.0993
      12    H8      19.345501   20.730738   23.482996 H          1 MOL1         0.0993
      13    C4      19.485262   19.978952   21.456979 C.3        1 MOL1        -0.1338
      14    H9      18.408530   20.110080   21.281838 H          1 MOL1         0.0993
      15    H10     19.960766   20.905808   21.107640 H          1 MOL1         0.0993
      16    C5      19.991945   18.797572   20.590474 C.3        1 MOL1        -0.1313
      17    H11     19.751050   19.007003   19.538872 H          1 MOL1         0.0993
      18    H12     19.447242   17.878617   20.845504 H          1 MOL1         0.0993
      19    C6      21.513285   18.553182   20.712702 C.3        1 MOL1        -0.2328
      20    H13     21.788493   18.224600   21.722502 H          1 MOL1         0.1004
      21    H14     22.079291   19.464704   20.480990 H          1 MOL1         0.1004
      22    H15     21.834591   17.771459   20.012333 H          1 MOL1         0.1004
      23    C7      21.048686   19.837672   26.064552 C.3        1 MOL1        -0.0781
      24    H16     21.157054   20.395819   25.133915 H          1 MOL1         0.0978
      25    H17     20.373790   20.371165   26.737382 H          1 MOL1         0.0978
      26    H18     22.025656   19.723398   26.539446 H          1 MOL1         0.0978
@<TRIPOS>BOND
    1     1     2    1
    2     1     3    1
    3     1     4    1
    4     4     5    1
    5     4     6    1
    6     4     7    1
    7     7     8    1
    8     7     9    1
    9     7    10    1
   10    10    11    1
   11    10    12    1
   12    10    13    1
   13    13    14    1
   14    13    15    1
   15    13    16    1
   16    16    17    1
   17    16    18    1
   18    16    19    1
   19    19    20    1
   20    19    21    1
   21    19    22    1
   22     1    23    1
   23    23    24    1
   24    23    25    1
   25    23    26    1
@<TRIPOS>SUBSTRUCTURE
       1 MOL1            1 RESIDUE      1      MOL     
@<SCITEGIC>MOL_PROPERTY
VM2 Rank
SciTegic.value.IntegerValue
122

@<SCITEGIC>MOL_PROPERTY
Conf_Id
SciTegic.value.IntegerValue
565

@<SCITEGIC>MOL_PROPERTY
Probability
SciTegic.value.DoubleValue
0.03

@<SCITEGIC>MOL_PROPERTY
Sum Probability
SciTegic.value.DoubleValue
99.22

@<SCITEGIC>MOL_PROPERTY
Delta G
SciTegic.value.DoubleValue
3.332

@<SCITEGIC>MOL_PROPERTY
G
SciTegic.value.DoubleValue
78.798

@<SCITEGIC>MOL_PROPERTY
E
SciTegic.value.DoubleValue
45.858

@<SCITEGIC>MOL_PROPERTY
-TS
SciTegic.value.DoubleValue
32.939

@<SCITEGIC>MOL_PROPERTY
U+W
SciTegic.value.DoubleValue
24.396

@<SCITEGIC>MOL_PROPERTY
U
SciTegic.value.DoubleValue
74.342

@<SCITEGIC>MOL_PROPERTY
W
SciTegic.value.DoubleValue
-49.946

@<SCITEGIC>MOL_PROPERTY
W(PB)
SciTegic.value.DoubleValue
-52.136

@<SCITEGIC>MOL_PROPERTY
W(SA)
SciTegic.value.DoubleValue
2.190

@<SCITEGIC>MOL_PROPERTY
Valence
SciTegic.value.DoubleValue
4.643

@<SCITEGIC>MOL_PROPERTY
Coulomb
SciTegic.value.DoubleValue
69.388

@<SCITEGIC>MOL_PROPERTY
VdW
SciTegic.value.DoubleValue
0.311

@<SCITEGIC>MOL_PROPERTY
VdW6
SciTegic.value.DoubleValue
-8.574

@<SCITEGIC>MOL_PROPERTY
VdW12
SciTegic.value.DoubleValue
8.886

@<SCITEGIC>MOL_PROPERTY
Bond
SciTegic.value.DoubleValue
0.266

@<SCITEGIC>MOL_PROPERTY
Angle
SciTegic.value.DoubleValue
1.427

@<SCITEGIC>MOL_PROPERTY
Pdih
SciTegic.value.DoubleValue
2.951

@<SCITEGIC>MOL_PROPERTY
Idih
SciTegic.value.DoubleValue
0.000

@<SCITEGIC>MOL_PROPERTY
Tether
SciTegic.value.DoubleValue
0.000

@<TRIPOS>MOLECULE
guest-s12_vm2.mol2 : vm2 ligand conformer 123
          26          25           1
SMALL
USER_CHARGES
 
@<TRIPOS>ATOM
       1    N1      19.682008   19.187940   25.937446 N.4        1 MOL1        -0.4857
       2    H1      19.941158   19.263985   26.933692 H          1 MOL1         0.3650
       3    H2      18.776553   18.694521   25.935946 H          1 MOL1         0.3650
       4    C1      20.732544   18.365013   25.208023 C.3        1 MOL1         0.0209
       5    H3      21.161154   17.682800   25.946636 H          1 MOL1         0.0967
       6    H4      21.528929   19.036012   24.878062 H          1 MOL1         0.0967
       7    C2      20.209671   17.515210   24.026162 C.3        1 MOL1        -0.1378
       8    H5      21.026929   16.869823   23.677940 H          1 MOL1         0.0993
       9    H6      19.427783   16.837968   24.394244 H          1 MOL1         0.0993
      10    C3      19.660640   18.317531   22.820341 C.3        1 MOL1        -0.1338
      11    H7      18.782296   18.899167   23.127429 H          1 MOL1         0.0993
      12    H8      19.299597   17.600081   22.072044 H          1 MOL1         0.0993
      13    C4      20.718884   19.246326   22.171969 C.3        1 MOL1        -0.1338
      14    H9      21.129509   19.925714   22.929815 H          1 MOL1         0.0993
      15    H10     21.563843   18.645605   21.808284 H          1 MOL1         0.0993
      16    C5      20.156979   20.103192   21.011704 C.3        1 MOL1        -0.1313
      17    H11     20.936766   20.803958   20.681977 H          1 MOL1         0.0993
      18    H12     19.323703   20.720595   21.375314 H          1 MOL1         0.0993
      19    C6      19.693479   19.267875   19.796445 C.3        1 MOL1        -0.2328
      20    H13     20.499783   18.617438   19.433425 H          1 MOL1         0.1004
      21    H14     19.395547   19.925593   18.969674 H          1 MOL1         0.1004
      22    H15     18.829256   18.639392   20.044319 H          1 MOL1         0.1004
      23    C7      19.553795   20.586914   25.344910 C.3        1 MOL1        -0.0781
      24    H16     19.241767   20.517846   24.302181 H          1 MOL1         0.0978
      25    H17     18.809342   21.148064   25.914058 H          1 MOL1         0.0978
      26    H18     20.520470   21.091226   25.407592 H          1 MOL1         0.0978
@<TRIPOS>BOND
    1     1     2    1
    2     1     3    1
    3     1     4    1
    4     4     5    1
    5     4     6    1
    6     4     7    1
    7     7     8    1
    8     7     9    1
    9     7    10    1
   10    10    11    1
   11    10    12    1
   12    10    13    1
   13    13    14    1
   14    13    15    1
   15    13    16    1
   16    16    17    1
   17    16    18    1
   18    16    19    1
   19    19    20    1
   20    19    21    1
   21    19    22    1
   22     1    23    1
   23    23    24    1
   24    23    25    1
   25    23    26    1
@<TRIPOS>SUBSTRUCTURE
       1 MOL1            1 RESIDUE      1      MOL     
@<SCITEGIC>MOL_PROPERTY
VM2 Rank
SciTegic.value.IntegerValue
123

@<SCITEGIC>MOL_PROPERTY
Conf_Id
SciTegic.value.IntegerValue
1589

@<SCITEGIC>MOL_PROPERTY
Probability
SciTegic.value.DoubleValue
0.03

@<SCITEGIC>MOL_PROPERTY
Sum Probability
SciTegic.value.DoubleValue
99.24

@<SCITEGIC>MOL_PROPERTY
Delta G
SciTegic.value.DoubleValue
3.336

@<SCITEGIC>MOL_PROPERTY
G
SciTegic.value.DoubleValue
78.802

@<SCITEGIC>MOL_PROPERTY
E
SciTegic.value.DoubleValue
45.756

@<SCITEGIC>MOL_PROPERTY
-TS
SciTegic.value.DoubleValue
33.046

@<SCITEGIC>MOL_PROPERTY
U+W
SciTegic.value.DoubleValue
24.294

@<SCITEGIC>MOL_PROPERTY
U
SciTegic.value.DoubleValue
74.192

@<SCITEGIC>MOL_PROPERTY
W
SciTegic.value.DoubleValue
-49.898

@<SCITEGIC>MOL_PROPERTY
W(PB)
SciTegic.value.DoubleValue
-52.092

@<SCITEGIC>MOL_PROPERTY
W(SA)
SciTegic.value.DoubleValue
2.194

@<SCITEGIC>MOL_PROPERTY
Valence
SciTegic.value.DoubleValue
4.602

@<SCITEGIC>MOL_PROPERTY
Coulomb
SciTegic.value.DoubleValue
69.486

@<SCITEGIC>MOL_PROPERTY
VdW
SciTegic.value.DoubleValue
0.104

@<SCITEGIC>MOL_PROPERTY
VdW6
SciTegic.value.DoubleValue
-8.802

@<SCITEGIC>MOL_PROPERTY
VdW12
SciTegic.value.DoubleValue
8.907

@<SCITEGIC>MOL_PROPERTY
Bond
SciTegic.value.DoubleValue
0.257

@<SCITEGIC>MOL_PROPERTY
Angle
SciTegic.value.DoubleValue
1.462

@<SCITEGIC>MOL_PROPERTY
Pdih
SciTegic.value.DoubleValue
2.883

@<SCITEGIC>MOL_PROPERTY
Idih
SciTegic.value.DoubleValue
0.000

@<SCITEGIC>MOL_PROPERTY
Tether
SciTegic.value.DoubleValue
0.000

@<TRIPOS>MOLECULE
guest-s12_vm2.mol2 : vm2 ligand conformer 124
          26          25           1
SMALL
USER_CHARGES
 
@<TRIPOS>ATOM
       1    N1      19.078340   18.558468   25.699570 N.4        1 MOL1        -0.4857
       2    H1      19.248890   17.556664   25.521742 H          1 MOL1         0.3650
       3    H2      18.058238   18.634619   25.839113 H          1 MOL1         0.3650
       4    C1      19.489674   19.384359   24.492114 C.3        1 MOL1         0.0209
       5    H3      19.333751   20.437829   24.737500 H          1 MOL1         0.0967
       6    H4      18.808644   19.125693   23.679935 H          1 MOL1         0.0967
       7    C2      20.948617   19.165862   24.034044 C.3        1 MOL1        -0.1378
       8    H5      21.617948   19.488407   24.841945 H          1 MOL1         0.0993
       9    H6      21.143584   18.096597   23.878630 H          1 MOL1         0.0993
      10    C3      21.307858   19.963850   22.755058 C.3        1 MOL1        -0.1338
      11    H7      22.385438   20.177986   22.777297 H          1 MOL1         0.0993
      12    H8      20.810460   20.943629   22.770457 H          1 MOL1         0.0993
      13    C4      21.004732   19.232285   21.421343 C.3        1 MOL1        -0.1338
      14    H9      21.363721   19.863089   20.596314 H          1 MOL1         0.0993
      15    H10     21.591194   18.304424   21.371772 H          1 MOL1         0.0993
      16    C5      19.510872   18.907348   21.189514 C.3        1 MOL1        -0.1313
      17    H11     18.903527   19.809982   21.344714 H          1 MOL1         0.0993
      18    H12     19.173574   18.158170   21.917563 H          1 MOL1         0.0993
      19    C6      19.260905   18.360910   19.767575 C.3        1 MOL1        -0.2328
      20    H13     18.198278   18.126026   19.623811 H          1 MOL1         0.1004
      21    H14     19.835703   17.442398   19.591022 H          1 MOL1         0.1004
      22    H15     19.548691   19.096216   19.004885 H          1 MOL1         0.1004
      23    C7      19.807001   19.016919   26.957783 C.3        1 MOL1        -0.0781
      24    H16     19.594143   20.074116   27.130555 H          1 MOL1         0.0978
      25    H17     19.457448   18.426813   27.807879 H          1 MOL1         0.0978
      26    H18     20.881156   18.871279   26.827331 H          1 MOL1         0.0978
@<TRIPOS>BOND
    1     1     2    1
    2     1     3    1
    3     1     4    1
    4     4     5    1
    5     4     6    1
    6     4     7    1
    7     7     8    1
    8     7     9    1
    9     7    10    1
   10    10    11    1
   11    10    12    1
   12    10    13    1
   13    13    14    1
   14    13    15    1
   15    13    16    1
   16    16    17    1
   17    16    18    1
   18    16    19    1
   19    19    20    1
   20    19    21    1
   21    19    22    1
   22     1    23    1
   23    23    24    1
   24    23    25    1
   25    23    26    1
@<TRIPOS>SUBSTRUCTURE
       1 MOL1            1 RESIDUE      1      MOL     
@<SCITEGIC>MOL_PROPERTY
VM2 Rank
SciTegic.value.IntegerValue
124

@<SCITEGIC>MOL_PROPERTY
Conf_Id
SciTegic.value.IntegerValue
1290

@<SCITEGIC>MOL_PROPERTY
Probability
SciTegic.value.DoubleValue
0.02

@<SCITEGIC>MOL_PROPERTY
Sum Probability
SciTegic.value.DoubleValue
99.26

@<SCITEGIC>MOL_PROPERTY
Delta G
SciTegic.value.DoubleValue
3.363

@<SCITEGIC>MOL_PROPERTY
G
SciTegic.value.DoubleValue
78.829

@<SCITEGIC>MOL_PROPERTY
E
SciTegic.value.DoubleValue
46.144

@<SCITEGIC>MOL_PROPERTY
-TS
SciTegic.value.DoubleValue
32.685

@<SCITEGIC>MOL_PROPERTY
U+W
SciTegic.value.DoubleValue
24.682

@<SCITEGIC>MOL_PROPERTY
U
SciTegic.value.DoubleValue
74.467

@<SCITEGIC>MOL_PROPERTY
W
SciTegic.value.DoubleValue
-49.785

@<SCITEGIC>MOL_PROPERTY
W(PB)
SciTegic.value.DoubleValue
-52.031

@<SCITEGIC>MOL_PROPERTY
W(SA)
SciTegic.value.DoubleValue
2.246

@<SCITEGIC>MOL_PROPERTY
Valence
SciTegic.value.DoubleValue
4.430

@<SCITEGIC>MOL_PROPERTY
Coulomb
SciTegic.value.DoubleValue
69.610

@<SCITEGIC>MOL_PROPERTY
VdW
SciTegic.value.DoubleValue
0.428

@<SCITEGIC>MOL_PROPERTY
VdW6
SciTegic.value.DoubleValue
-7.654

@<SCITEGIC>MOL_PROPERTY
VdW12
SciTegic.value.DoubleValue
8.082

@<SCITEGIC>MOL_PROPERTY
Bond
SciTegic.value.DoubleValue
0.236

@<SCITEGIC>MOL_PROPERTY
Angle
SciTegic.value.DoubleValue
1.210

@<SCITEGIC>MOL_PROPERTY
Pdih
SciTegic.value.DoubleValue
2.984

@<SCITEGIC>MOL_PROPERTY
Idih
SciTegic.value.DoubleValue
0.000

@<SCITEGIC>MOL_PROPERTY
Tether
SciTegic.value.DoubleValue
0.000

@<TRIPOS>MOLECULE
guest-s12_vm2.mol2 : vm2 ligand conformer 125
          26          25           1
SMALL
USER_CHARGES
 
@<TRIPOS>ATOM
       1    N1      19.699949   18.440786   26.018767 N.4        1 MOL1        -0.4857
       2    H1      20.524637   17.844048   26.187959 H          1 MOL1         0.3650
       3    H2      18.958689   17.799825   25.695604 H          1 MOL1         0.3650
       4    C1      20.008225   19.467125   24.947085 C.3        1 MOL1         0.0209
       5    H3      20.800703   20.118246   25.324582 H          1 MOL1         0.0967
       6    H4      19.110448   20.071102   24.793164 H          1 MOL1         0.0967
       7    C2      20.445580   18.840126   23.610912 C.3        1 MOL1        -0.1378
       8    H5      21.337679   18.221389   23.775745 H          1 MOL1         0.0993
       9    H6      19.656589   18.169550   23.252569 H          1 MOL1         0.0993
      10    C3      20.758812   19.927294   22.554768 C.3        1 MOL1        -0.1338
      11    H7      21.568587   20.559099   22.945759 H          1 MOL1         0.0993
      12    H8      19.894014   20.591847   22.420729 H          1 MOL1         0.0993
      13    C4      21.204375   19.350289   21.185456 C.3        1 MOL1        -0.1338
      14    H9      21.956930   20.027296   20.757855 H          1 MOL1         0.0993
      15    H10     21.717702   18.388931   21.324923 H          1 MOL1         0.0993
      16    C5      20.067104   19.200797   20.142478 C.3        1 MOL1        -0.1313
      17    H11     20.506030   18.854608   19.196243 H          1 MOL1         0.0993
      18    H12     19.629085   20.186306   19.931011 H          1 MOL1         0.0993
      19    C6      18.947234   18.220839   20.555819 C.3        1 MOL1        -0.2328
      20    H13     18.364983   18.613258   21.398482 H          1 MOL1         0.1004
      21    H14     19.359507   17.243676   20.838687 H          1 MOL1         0.1004
      22    H15     18.250101   18.062327   19.722891 H          1 MOL1         0.1004
      23    C7      19.276722   19.142744   27.301716 C.3        1 MOL1        -0.0781
      24    H16     18.384240   19.741208   27.106072 H          1 MOL1         0.0978
      25    H17     19.057850   18.392661   28.065006 H          1 MOL1         0.0978
      26    H18     20.088643   19.789226   27.642017 H          1 MOL1         0.0978
@<TRIPOS>BOND
    1     1     2    1
    2     1     3    1
    3     1     4    1
    4     4     5    1
    5     4     6    1
    6     4     7    1
    7     7     8    1
    8     7     9    1
    9     7    10    1
   10    10    11    1
   11    10    12    1
   12    10    13    1
   13    13    14    1
   14    13    15    1
   15    13    16    1
   16    16    17    1
   17    16    18    1
   18    16    19    1
   19    19    20    1
   20    19    21    1
   21    19    22    1
   22     1    23    1
   23    23    24    1
   24    23    25    1
   25    23    26    1
@<TRIPOS>SUBSTRUCTURE
       1 MOL1            1 RESIDUE      1      MOL     
@<SCITEGIC>MOL_PROPERTY
VM2 Rank
SciTegic.value.IntegerValue
125

@<SCITEGIC>MOL_PROPERTY
Conf_Id
SciTegic.value.IntegerValue
1834

@<SCITEGIC>MOL_PROPERTY
Probability
SciTegic.value.DoubleValue
0.02

@<SCITEGIC>MOL_PROPERTY
Sum Probability
SciTegic.value.DoubleValue
99.29

@<SCITEGIC>MOL_PROPERTY
Delta G
SciTegic.value.DoubleValue
3.370

@<SCITEGIC>MOL_PROPERTY
G
SciTegic.value.DoubleValue
78.836

@<SCITEGIC>MOL_PROPERTY
E
SciTegic.value.DoubleValue
46.333

@<SCITEGIC>MOL_PROPERTY
-TS
SciTegic.value.DoubleValue
32.503

@<SCITEGIC>MOL_PROPERTY
U+W
SciTegic.value.DoubleValue
24.872

@<SCITEGIC>MOL_PROPERTY
U
SciTegic.value.DoubleValue
74.070

@<SCITEGIC>MOL_PROPERTY
W
SciTegic.value.DoubleValue
-49.199

@<SCITEGIC>MOL_PROPERTY
W(PB)
SciTegic.value.DoubleValue
-51.476

@<SCITEGIC>MOL_PROPERTY
W(SA)
SciTegic.value.DoubleValue
2.277

@<SCITEGIC>MOL_PROPERTY
Valence
SciTegic.value.DoubleValue
4.689

@<SCITEGIC>MOL_PROPERTY
Coulomb
SciTegic.value.DoubleValue
69.115

@<SCITEGIC>MOL_PROPERTY
VdW
SciTegic.value.DoubleValue
0.266

@<SCITEGIC>MOL_PROPERTY
VdW6
SciTegic.value.DoubleValue
-6.809

@<SCITEGIC>MOL_PROPERTY
VdW12
SciTegic.value.DoubleValue
7.075

@<SCITEGIC>MOL_PROPERTY
Bond
SciTegic.value.DoubleValue
0.212

@<SCITEGIC>MOL_PROPERTY
Angle
SciTegic.value.DoubleValue
1.132

@<SCITEGIC>MOL_PROPERTY
Pdih
SciTegic.value.DoubleValue
3.345

@<SCITEGIC>MOL_PROPERTY
Idih
SciTegic.value.DoubleValue
0.000

@<SCITEGIC>MOL_PROPERTY
Tether
SciTegic.value.DoubleValue
0.000

@<TRIPOS>MOLECULE
guest-s12_vm2.mol2 : vm2 ligand conformer 126
          26          25           1
SMALL
USER_CHARGES
 
@<TRIPOS>ATOM
       1    N1      20.935946   18.747163   25.765521 N.4        1 MOL1        -0.4857
       2    H1      21.907661   19.025561   25.975627 H          1 MOL1         0.3650
       3    H2      20.982841   17.732780   25.583446 H          1 MOL1         0.3650
       4    C1      20.452851   19.482086   24.526267 C.3        1 MOL1         0.0209
       5    H3      21.227216   19.371219   23.765731 H          1 MOL1         0.0967
       6    H4      20.376384   20.543647   24.774393 H          1 MOL1         0.0967
       7    C2      19.103334   18.978212   23.968601 C.3        1 MOL1        -0.1378
       8    H5      19.138581   17.892728   23.807432 H          1 MOL1         0.0993
       9    H6      18.327901   19.153854   24.725300 H          1 MOL1         0.0993
      10    C3      18.681611   19.696943   22.661997 C.3        1 MOL1        -0.1338
      11    H7      18.969726   20.756529   22.705298 H          1 MOL1         0.0993
      12    H8      17.584126   19.690091   22.607168 H          1 MOL1         0.0993
      13    C4      19.218181   19.050779   21.357994 C.3        1 MOL1        -0.1338
      14    H9      18.835006   18.024406   21.274003 H          1 MOL1         0.0993
      15    H10     18.798491   19.602520   20.505409 H          1 MOL1         0.0993
      16    C5      20.759356   19.034216   21.233712 C.3        1 MOL1        -0.1313
      17    H11     21.188417   18.362844   21.988868 H          1 MOL1         0.0993
      18    H12     21.160609   20.039309   21.424731 H          1 MOL1         0.0993
      19    C6      21.212978   18.559371   19.836668 C.3        1 MOL1        -0.2328
      20    H13     22.308534   18.543768   19.769367 H          1 MOL1         0.1004
      21    H14     20.837500   19.227346   19.050527 H          1 MOL1         0.1004
      22    H15     20.848215   17.545414   19.626748 H          1 MOL1         0.1004
      23    C7      20.043743   19.041231   26.966239 C.3        1 MOL1        -0.0781
      24    H16     20.444170   18.527381   27.842989 H          1 MOL1         0.0978
      25    H17     20.027434   20.118406   27.145831 H          1 MOL1         0.0978
      26    H18     19.032517   18.683861   26.761917 H          1 MOL1         0.0978
@<TRIPOS>BOND
    1     1     2    1
    2     1     3    1
    3     1     4    1
    4     4     5    1
    5     4     6    1
    6     4     7    1
    7     7     8    1
    8     7     9    1
    9     7    10    1
   10    10    11    1
   11    10    12    1
   12    10    13    1
   13    13    14    1
   14    13    15    1
   15    13    16    1
   16    16    17    1
   17    16    18    1
   18    16    19    1
   19    19    20    1
   20    19    21    1
   21    19    22    1
   22     1    23    1
   23    23    24    1
   24    23    25    1
   25    23    26    1
@<TRIPOS>SUBSTRUCTURE
       1 MOL1            1 RESIDUE      1      MOL     
@<SCITEGIC>MOL_PROPERTY
VM2 Rank
SciTegic.value.IntegerValue
126

@<SCITEGIC>MOL_PROPERTY
Conf_Id
SciTegic.value.IntegerValue
1370

@<SCITEGIC>MOL_PROPERTY
Probability
SciTegic.value.DoubleValue
0.02

@<SCITEGIC>MOL_PROPERTY
Sum Probability
SciTegic.value.DoubleValue
99.31

@<SCITEGIC>MOL_PROPERTY
Delta G
SciTegic.value.DoubleValue
3.383

@<SCITEGIC>MOL_PROPERTY
G
SciTegic.value.DoubleValue
78.849

@<SCITEGIC>MOL_PROPERTY
E
SciTegic.value.DoubleValue
46.165

@<SCITEGIC>MOL_PROPERTY
-TS
SciTegic.value.DoubleValue
32.684

@<SCITEGIC>MOL_PROPERTY
U+W
SciTegic.value.DoubleValue
24.703

@<SCITEGIC>MOL_PROPERTY
U
SciTegic.value.DoubleValue
74.467

@<SCITEGIC>MOL_PROPERTY
W
SciTegic.value.DoubleValue
-49.764

@<SCITEGIC>MOL_PROPERTY
W(PB)
SciTegic.value.DoubleValue
-52.028

@<SCITEGIC>MOL_PROPERTY
W(SA)
SciTegic.value.DoubleValue
2.265

@<SCITEGIC>MOL_PROPERTY
Valence
SciTegic.value.DoubleValue
4.430

@<SCITEGIC>MOL_PROPERTY
Coulomb
SciTegic.value.DoubleValue
69.610

@<SCITEGIC>MOL_PROPERTY
VdW
SciTegic.value.DoubleValue
0.428

@<SCITEGIC>MOL_PROPERTY
VdW6
SciTegic.value.DoubleValue
-7.654

@<SCITEGIC>MOL_PROPERTY
VdW12
SciTegic.value.DoubleValue
8.081

@<SCITEGIC>MOL_PROPERTY
Bond
SciTegic.value.DoubleValue
0.236

@<SCITEGIC>MOL_PROPERTY
Angle
SciTegic.value.DoubleValue
1.210

@<SCITEGIC>MOL_PROPERTY
Pdih
SciTegic.value.DoubleValue
2.984

@<SCITEGIC>MOL_PROPERTY
Idih
SciTegic.value.DoubleValue
0.000

@<SCITEGIC>MOL_PROPERTY
Tether
SciTegic.value.DoubleValue
0.000

@<TRIPOS>MOLECULE
guest-s12_vm2.mol2 : vm2 ligand conformer 127
          26          25           1
SMALL
USER_CHARGES
 
@<TRIPOS>ATOM
       1    N1      20.850952   18.671927   25.828665 N.4        1 MOL1        -0.4857
       2    H1      21.878252   18.702875   25.926394 H          1 MOL1         0.3650
       3    H2      20.600952   17.679521   25.959223 H          1 MOL1         0.3650
       4    C1      20.458945   19.134217   24.435187 C.3        1 MOL1         0.0209
       5    H3      21.096480   18.596477   23.729938 H          1 MOL1         0.0967
       6    H4      20.684463   20.200715   24.357769 H          1 MOL1         0.0967
       7    C2      18.983092   18.879843   24.066466 C.3        1 MOL1        -0.1378
       8    H5      18.773555   17.803930   24.129997 H          1 MOL1         0.0993
       9    H6      18.334831   19.365661   24.806796 H          1 MOL1         0.0993
      10    C3      18.591863   19.400593   22.660263 C.3        1 MOL1        -0.1338
      11    H7      18.712837   20.491715   22.613438 H          1 MOL1         0.0993
      12    H8      17.516945   19.215565   22.526597 H          1 MOL1         0.0993
      13    C4      19.347300   18.724900   21.485770 C.3        1 MOL1        -0.1338
      14    H9      19.571496   17.678148   21.733398 H          1 MOL1         0.0993
      15    H10     18.674852   18.692527   20.617227 H          1 MOL1         0.0993
      16    C5      20.638376   19.468075   21.063641 C.3        1 MOL1        -0.1313
      17    H11     21.343920   19.531983   21.900228 H          1 MOL1         0.0993
      18    H12     20.392989   20.501710   20.782170 H          1 MOL1         0.0993
      19    C6      21.332640   18.769949   19.874784 C.3        1 MOL1        -0.2328
      20    H13     22.241647   19.312180   19.583712 H          1 MOL1         0.1004
      21    H14     20.671191   18.728110   18.999604 H          1 MOL1         0.1004
      22    H15     21.621714   17.743122   20.134117 H          1 MOL1         0.1004
      23    C7      20.204831   19.540495   26.902224 C.3        1 MOL1        -0.0781
      24    H16     19.118810   19.450532   26.836260 H          1 MOL1         0.0978
      25    H17     20.541562   19.202862   27.884922 H          1 MOL1         0.0978
      26    H18     20.500980   20.580448   26.748525 H          1 MOL1         0.0978
@<TRIPOS>BOND
    1     1     2    1
    2     1     3    1
    3     1     4    1
    4     4     5    1
    5     4     6    1
    6     4     7    1
    7     7     8    1
    8     7     9    1
    9     7    10    1
   10    10    11    1
   11    10    12    1
   12    10    13    1
   13    13    14    1
   14    13    15    1
   15    13    16    1
   16    16    17    1
   17    16    18    1
   18    16    19    1
   19    19    20    1
   20    19    21    1
   21    19    22    1
   22     1    23    1
   23    23    24    1
   24    23    25    1
   25    23    26    1
@<TRIPOS>SUBSTRUCTURE
       1 MOL1            1 RESIDUE      1      MOL     
@<SCITEGIC>MOL_PROPERTY
VM2 Rank
SciTegic.value.IntegerValue
127

@<SCITEGIC>MOL_PROPERTY
Conf_Id
SciTegic.value.IntegerValue
1592

@<SCITEGIC>MOL_PROPERTY
Probability
SciTegic.value.DoubleValue
0.02

@<SCITEGIC>MOL_PROPERTY
Sum Probability
SciTegic.value.DoubleValue
99.34

@<SCITEGIC>MOL_PROPERTY
Delta G
SciTegic.value.DoubleValue
3.392

@<SCITEGIC>MOL_PROPERTY
G
SciTegic.value.DoubleValue
78.858

@<SCITEGIC>MOL_PROPERTY
E
SciTegic.value.DoubleValue
46.354

@<SCITEGIC>MOL_PROPERTY
-TS
SciTegic.value.DoubleValue
32.504

@<SCITEGIC>MOL_PROPERTY
U+W
SciTegic.value.DoubleValue
24.892

@<SCITEGIC>MOL_PROPERTY
U
SciTegic.value.DoubleValue
74.474

@<SCITEGIC>MOL_PROPERTY
W
SciTegic.value.DoubleValue
-49.582

@<SCITEGIC>MOL_PROPERTY
W(PB)
SciTegic.value.DoubleValue
-51.831

@<SCITEGIC>MOL_PROPERTY
W(SA)
SciTegic.value.DoubleValue
2.249

@<SCITEGIC>MOL_PROPERTY
Valence
SciTegic.value.DoubleValue
4.600

@<SCITEGIC>MOL_PROPERTY
Coulomb
SciTegic.value.DoubleValue
69.381

@<SCITEGIC>MOL_PROPERTY
VdW
SciTegic.value.DoubleValue
0.493

@<SCITEGIC>MOL_PROPERTY
VdW6
SciTegic.value.DoubleValue
-7.465

@<SCITEGIC>MOL_PROPERTY
VdW12
SciTegic.value.DoubleValue
7.958

@<SCITEGIC>MOL_PROPERTY
Bond
SciTegic.value.DoubleValue
0.243

@<SCITEGIC>MOL_PROPERTY
Angle
SciTegic.value.DoubleValue
1.200

@<SCITEGIC>MOL_PROPERTY
Pdih
SciTegic.value.DoubleValue
3.158

@<SCITEGIC>MOL_PROPERTY
Idih
SciTegic.value.DoubleValue
0.000

@<SCITEGIC>MOL_PROPERTY
Tether
SciTegic.value.DoubleValue
0.000

@<TRIPOS>MOLECULE
guest-s12_vm2.mol2 : vm2 ligand conformer 128
          26          25           1
SMALL
USER_CHARGES
 
@<TRIPOS>ATOM
       1    N1      20.415802   18.457062   25.957172 N.4        1 MOL1        -0.4857
       2    H1      21.411516   18.307638   25.731423 H          1 MOL1         0.3650
       3    H2      19.969794   17.531754   25.858788 H          1 MOL1         0.3650
       4    C1      19.800118   19.440643   24.982280 C.3        1 MOL1         0.0209
       5    H3      20.303706   20.401841   25.112629 H          1 MOL1         0.0967
       6    H4      18.747825   19.564042   25.250473 H          1 MOL1         0.0967
       7    C2      19.911310   18.992783   23.513613 C.3        1 MOL1        -0.1378
       8    H5      20.971000   18.859365   23.263197 H          1 MOL1         0.0993
       9    H6      19.416987   18.020149   23.389615 H          1 MOL1         0.0993
      10    C3      19.273949   20.028085   22.559356 C.3        1 MOL1        -0.1338
      11    H7      19.832087   20.972702   22.620505 H          1 MOL1         0.0993
      12    H8      18.255710   20.252691   22.906477 H          1 MOL1         0.0993
      13    C4      19.192513   19.572161   21.079244 C.3        1 MOL1        -0.1338
      14    H9      18.546268   18.687972   20.990876 H          1 MOL1         0.0993
      15    H10     18.682968   20.366989   20.516984 H          1 MOL1         0.0993
      16    C5      20.561980   19.305418   20.402349 C.3        1 MOL1        -0.1313
      17    H11     21.339897   19.939125   20.850558 H          1 MOL1         0.0993
      18    H12     20.495886   19.609604   19.348253 H          1 MOL1         0.0993
      19    C6      20.989208   17.819300   20.442183 C.3        1 MOL1        -0.2328
      20    H13     20.250621   17.185654   19.934230 H          1 MOL1         0.1004
      21    H14     21.102963   17.448786   21.466693 H          1 MOL1         0.1004
      22    H15     21.951124   17.682829   19.931298 H          1 MOL1         0.1004
      23    C7      20.263120   18.974547   27.380802 C.3        1 MOL1        -0.0781
      24    H16     20.770475   19.937740   27.469181 H          1 MOL1         0.0978
      25    H17     19.201369   19.093231   27.607865 H          1 MOL1         0.0978
      26    H18     20.710333   18.257221   28.072601 H          1 MOL1         0.0978
@<TRIPOS>BOND
    1     1     2    1
    2     1     3    1
    3     1     4    1
    4     4     5    1
    5     4     6    1
    6     4     7    1
    7     7     8    1
    8     7     9    1
    9     7    10    1
   10    10    11    1
   11    10    12    1
   12    10    13    1
   13    13    14    1
   14    13    15    1
   15    13    16    1
   16    16    17    1
   17    16    18    1
   18    16    19    1
   19    19    20    1
   20    19    21    1
   21    19    22    1
   22     1    23    1
   23    23    24    1
   24    23    25    1
   25    23    26    1
@<TRIPOS>SUBSTRUCTURE
       1 MOL1            1 RESIDUE      1      MOL     
@<SCITEGIC>MOL_PROPERTY
VM2 Rank
SciTegic.value.IntegerValue
128

@<SCITEGIC>MOL_PROPERTY
Conf_Id
SciTegic.value.IntegerValue
1852

@<SCITEGIC>MOL_PROPERTY
Probability
SciTegic.value.DoubleValue
0.02

@<SCITEGIC>MOL_PROPERTY
Sum Probability
SciTegic.value.DoubleValue
99.36

@<SCITEGIC>MOL_PROPERTY
Delta G
SciTegic.value.DoubleValue
3.421

@<SCITEGIC>MOL_PROPERTY
G
SciTegic.value.DoubleValue
78.887

@<SCITEGIC>MOL_PROPERTY
E
SciTegic.value.DoubleValue
46.394

@<SCITEGIC>MOL_PROPERTY
-TS
SciTegic.value.DoubleValue
32.493

@<SCITEGIC>MOL_PROPERTY
U+W
SciTegic.value.DoubleValue
24.933

@<SCITEGIC>MOL_PROPERTY
U
SciTegic.value.DoubleValue
74.134

@<SCITEGIC>MOL_PROPERTY
W
SciTegic.value.DoubleValue
-49.201

@<SCITEGIC>MOL_PROPERTY
W(PB)
SciTegic.value.DoubleValue
-51.486

@<SCITEGIC>MOL_PROPERTY
W(SA)
SciTegic.value.DoubleValue
2.285

@<SCITEGIC>MOL_PROPERTY
Valence
SciTegic.value.DoubleValue
4.712

@<SCITEGIC>MOL_PROPERTY
Coulomb
SciTegic.value.DoubleValue
69.140

@<SCITEGIC>MOL_PROPERTY
VdW
SciTegic.value.DoubleValue
0.281

@<SCITEGIC>MOL_PROPERTY
VdW6
SciTegic.value.DoubleValue
-6.800

@<SCITEGIC>MOL_PROPERTY
VdW12
SciTegic.value.DoubleValue
7.081

@<SCITEGIC>MOL_PROPERTY
Bond
SciTegic.value.DoubleValue
0.212

@<SCITEGIC>MOL_PROPERTY
Angle
SciTegic.value.DoubleValue
1.172

@<SCITEGIC>MOL_PROPERTY
Pdih
SciTegic.value.DoubleValue
3.329

@<SCITEGIC>MOL_PROPERTY
Idih
SciTegic.value.DoubleValue
0.000

@<SCITEGIC>MOL_PROPERTY
Tether
SciTegic.value.DoubleValue
0.000

@<TRIPOS>MOLECULE
guest-s12_vm2.mol2 : vm2 ligand conformer 129
          26          25           1
SMALL
USER_CHARGES
 
@<TRIPOS>ATOM
       1    N1      20.330212   18.504977   26.041093 N.4        1 MOL1        -0.4857
       2    H1      21.206130   18.028780   25.775131 H          1 MOL1         0.3650
       3    H2      19.632854   17.753168   26.156446 H          1 MOL1         0.3650
       4    C1      19.897254   19.455801   24.943190 C.3        1 MOL1         0.0209
       5    H3      20.663405   20.229420   24.848284 H          1 MOL1         0.0967
       6    H4      18.965342   19.931105   25.259596 H          1 MOL1         0.0967
       7    C2      19.689985   18.763158   23.584127 C.3        1 MOL1        -0.1378
       8    H5      20.621050   18.267897   23.286774 H          1 MOL1         0.0993
       9    H6      18.931532   17.976199   23.690383 H          1 MOL1         0.0993
      10    C3      19.238988   19.772490   22.500919 C.3        1 MOL1        -0.1338
      11    H7      19.959394   20.598590   22.423136 H          1 MOL1         0.0993
      12    H8      18.293150   20.225372   22.829672 H          1 MOL1         0.0993
      13    C4      19.015924   19.127426   21.107861 C.3        1 MOL1        -0.1338
      14    H9      18.698178   18.081425   21.217803 H          1 MOL1         0.0993
      15    H10     18.174357   19.642100   20.623718 H          1 MOL1         0.0993
      16    C5      20.230293   19.217479   20.148308 C.3        1 MOL1        -0.1313
      17    H11     20.474687   20.272490   19.961149 H          1 MOL1         0.0993
      18    H12     19.937494   18.796887   19.176077 H          1 MOL1         0.0993
      19    C6      21.492721   18.480036   20.646041 C.3        1 MOL1        -0.2328
      20    H13     22.264109   18.471105   19.865161 H          1 MOL1         0.1004
      21    H14     21.266799   17.437872   20.906202 H          1 MOL1         0.1004
      22    H15     21.923559   18.975534   21.524646 H          1 MOL1         0.1004
      23    C7      20.512621   19.268635   27.345462 C.3        1 MOL1        -0.0781
      24    H16     19.565361   19.735877   27.623567 H          1 MOL1         0.0978
      25    H17     20.824196   18.572592   28.127503 H          1 MOL1         0.0978
      26    H18     21.277708   20.035983   27.208428 H          1 MOL1         0.0978
@<TRIPOS>BOND
    1     1     2    1
    2     1     3    1
    3     1     4    1
    4     4     5    1
    5     4     6    1
    6     4     7    1
    7     7     8    1
    8     7     9    1
    9     7    10    1
   10    10    11    1
   11    10    12    1
   12    10    13    1
   13    13    14    1
   14    13    15    1
   15    13    16    1
   16    16    17    1
   17    16    18    1
   18    16    19    1
   19    19    20    1
   20    19    21    1
   21    19    22    1
   22     1    23    1
   23    23    24    1
   24    23    25    1
   25    23    26    1
@<TRIPOS>SUBSTRUCTURE
       1 MOL1            1 RESIDUE      1      MOL     
@<SCITEGIC>MOL_PROPERTY
VM2 Rank
SciTegic.value.IntegerValue
129

@<SCITEGIC>MOL_PROPERTY
Conf_Id
SciTegic.value.IntegerValue
248

@<SCITEGIC>MOL_PROPERTY
Probability
SciTegic.value.DoubleValue
0.02

@<SCITEGIC>MOL_PROPERTY
Sum Probability
SciTegic.value.DoubleValue
99.38

@<SCITEGIC>MOL_PROPERTY
Delta G
SciTegic.value.DoubleValue
3.438

@<SCITEGIC>MOL_PROPERTY
G
SciTegic.value.DoubleValue
78.904

@<SCITEGIC>MOL_PROPERTY
E
SciTegic.value.DoubleValue
46.401

@<SCITEGIC>MOL_PROPERTY
-TS
SciTegic.value.DoubleValue
32.503

@<SCITEGIC>MOL_PROPERTY
U+W
SciTegic.value.DoubleValue
24.940

@<SCITEGIC>MOL_PROPERTY
U
SciTegic.value.DoubleValue
74.070

@<SCITEGIC>MOL_PROPERTY
W
SciTegic.value.DoubleValue
-49.131

@<SCITEGIC>MOL_PROPERTY
W(PB)
SciTegic.value.DoubleValue
-51.425

@<SCITEGIC>MOL_PROPERTY
W(SA)
SciTegic.value.DoubleValue
2.294

@<SCITEGIC>MOL_PROPERTY
Valence
SciTegic.value.DoubleValue
4.690

@<SCITEGIC>MOL_PROPERTY
Coulomb
SciTegic.value.DoubleValue
69.115

@<SCITEGIC>MOL_PROPERTY
VdW
SciTegic.value.DoubleValue
0.266

@<SCITEGIC>MOL_PROPERTY
VdW6
SciTegic.value.DoubleValue
-6.809

@<SCITEGIC>MOL_PROPERTY
VdW12
SciTegic.value.DoubleValue
7.075

@<SCITEGIC>MOL_PROPERTY
Bond
SciTegic.value.DoubleValue
0.212

@<SCITEGIC>MOL_PROPERTY
Angle
SciTegic.value.DoubleValue
1.133

@<SCITEGIC>MOL_PROPERTY
Pdih
SciTegic.value.DoubleValue
3.345

@<SCITEGIC>MOL_PROPERTY
Idih
SciTegic.value.DoubleValue
0.000

@<SCITEGIC>MOL_PROPERTY
Tether
SciTegic.value.DoubleValue
0.000

@<TRIPOS>MOLECULE
guest-s12_vm2.mol2 : vm2 ligand conformer 130
          26          25           1
SMALL
USER_CHARGES
 
@<TRIPOS>ATOM
       1    N1      19.631215   18.377460   25.929333 N.4        1 MOL1        -0.4857
       2    H1      20.259510   17.561131   25.868942 H          1 MOL1         0.3650
       3    H2      18.703999   18.032995   25.635472 H          1 MOL1         0.3650
       4    C1      20.103840   19.471486   24.993040 C.3        1 MOL1         0.0209
       5    H3      21.088524   19.801604   25.333479 H          1 MOL1         0.0967
       6    H4      19.409755   20.311140   25.080905 H          1 MOL1         0.0967
       7    C2      20.188056   19.020880   23.523422 C.3        1 MOL1        -0.1378
       8    H5      20.875006   18.168176   23.441319 H          1 MOL1         0.0993
       9    H6      19.196936   18.679253   23.200277 H          1 MOL1         0.0993
      10    C3      20.669941   20.169806   22.608852 C.3        1 MOL1        -0.1338
      11    H7      21.595486   20.591744   23.024889 H          1 MOL1         0.0993
      12    H8      19.930678   20.982714   22.624001 H          1 MOL1         0.0993
      13    C4      20.944774   19.750032   21.141376 C.3        1 MOL1        -0.1338
      14    H9      21.322569   20.634924   20.610565 H          1 MOL1         0.0993
      15    H10     21.759891   19.014178   21.104834 H          1 MOL1         0.0993
      16    C5      19.707587   19.218681   20.372080 C.3        1 MOL1        -0.1313
      17    H11     19.784978   19.537456   19.323077 H          1 MOL1         0.0993
      18    H12     18.788851   19.680137   20.760168 H          1 MOL1         0.0993
      19    C6      19.585622   17.676808   20.392418 C.3        1 MOL1        -0.2328
      20    H13     20.470058   17.207946   19.941888 H          1 MOL1         0.1004
      21    H14     18.708831   17.353696   19.816445 H          1 MOL1         0.1004
      22    H15     19.477148   17.283689   21.409046 H          1 MOL1         0.1004
      23    C7      19.576965   18.904846   27.356479 C.3        1 MOL1        -0.0781
      24    H16     18.881772   19.746014   27.402347 H          1 MOL1         0.0978
      25    H17     19.235465   18.107446   28.020310 H          1 MOL1         0.0978
      26    H18     20.574771   19.232495   27.656459 H          1 MOL1         0.0978
@<TRIPOS>BOND
    1     1     2    1
    2     1     3    1
    3     1     4    1
    4     4     5    1
    5     4     6    1
    6     4     7    1
    7     7     8    1
    8     7     9    1
    9     7    10    1
   10    10    11    1
   11    10    12    1
   12    10    13    1
   13    13    14    1
   14    13    15    1
   15    13    16    1
   16    16    17    1
   17    16    18    1
   18    16    19    1
   19    19    20    1
   20    19    21    1
   21    19    22    1
   22     1    23    1
   23    23    24    1
   24    23    25    1
   25    23    26    1
@<TRIPOS>SUBSTRUCTURE
       1 MOL1            1 RESIDUE      1      MOL     
@<SCITEGIC>MOL_PROPERTY
VM2 Rank
SciTegic.value.IntegerValue
130

@<SCITEGIC>MOL_PROPERTY
Conf_Id
SciTegic.value.IntegerValue
1498

@<SCITEGIC>MOL_PROPERTY
Probability
SciTegic.value.DoubleValue
0.02

@<SCITEGIC>MOL_PROPERTY
Sum Probability
SciTegic.value.DoubleValue
99.40

@<SCITEGIC>MOL_PROPERTY
Delta G
SciTegic.value.DoubleValue
3.452

@<SCITEGIC>MOL_PROPERTY
G
SciTegic.value.DoubleValue
78.918

@<SCITEGIC>MOL_PROPERTY
E
SciTegic.value.DoubleValue
46.426

@<SCITEGIC>MOL_PROPERTY
-TS
SciTegic.value.DoubleValue
32.493

@<SCITEGIC>MOL_PROPERTY
U+W
SciTegic.value.DoubleValue
24.964

@<SCITEGIC>MOL_PROPERTY
U
SciTegic.value.DoubleValue
74.134

@<SCITEGIC>MOL_PROPERTY
W
SciTegic.value.DoubleValue
-49.170

@<SCITEGIC>MOL_PROPERTY
W(PB)
SciTegic.value.DoubleValue
-51.474

@<SCITEGIC>MOL_PROPERTY
W(SA)
SciTegic.value.DoubleValue
2.304

@<SCITEGIC>MOL_PROPERTY
Valence
SciTegic.value.DoubleValue
4.712

@<SCITEGIC>MOL_PROPERTY
Coulomb
SciTegic.value.DoubleValue
69.140

@<SCITEGIC>MOL_PROPERTY
VdW
SciTegic.value.DoubleValue
0.281

@<SCITEGIC>MOL_PROPERTY
VdW6
SciTegic.value.DoubleValue
-6.800

@<SCITEGIC>MOL_PROPERTY
VdW12
SciTegic.value.DoubleValue
7.081

@<SCITEGIC>MOL_PROPERTY
Bond
SciTegic.value.DoubleValue
0.212

@<SCITEGIC>MOL_PROPERTY
Angle
SciTegic.value.DoubleValue
1.171

@<SCITEGIC>MOL_PROPERTY
Pdih
SciTegic.value.DoubleValue
3.329

@<SCITEGIC>MOL_PROPERTY
Idih
SciTegic.value.DoubleValue
0.000

@<SCITEGIC>MOL_PROPERTY
Tether
SciTegic.value.DoubleValue
0.000

@<TRIPOS>MOLECULE
guest-s12_vm2.mol2 : vm2 ligand conformer 131
          26          25           1
SMALL
USER_CHARGES
 
@<TRIPOS>ATOM
       1    N1      19.589838   18.366138   25.742058 N.4        1 MOL1        -0.4857
       2    H1      19.699844   17.850975   26.629823 H          1 MOL1         0.3650
       3    H2      19.126780   17.701254   25.104304 H          1 MOL1         0.3650
       4    C1      20.962690   18.742816   25.207874 C.3        1 MOL1         0.0209
       5    H3      21.662066   17.990952   25.582413 H          1 MOL1         0.0967
       6    H4      21.246737   19.705350   25.640472 H          1 MOL1         0.0967
       7    C2      21.088702   18.786019   23.668617 C.3        1 MOL1        -0.1378
       8    H5      22.144440   18.956522   23.419832 H          1 MOL1         0.0993
       9    H6      20.828620   17.801016   23.260758 H          1 MOL1         0.0993
      10    C3      20.227863   19.884738   22.998057 C.3        1 MOL1        -0.1338
      11    H7      20.392037   20.837434   23.520179 H          1 MOL1         0.0993
      12    H8      19.162734   19.649590   23.114434 H          1 MOL1         0.0993
      13    C4      20.549316   20.087574   21.494740 C.3        1 MOL1        -0.1338
      14    H9      19.922209   20.901873   21.106335 H          1 MOL1         0.0993
      15    H10     21.586991   20.434599   21.394633 H          1 MOL1         0.0993
      16    C5      20.353582   18.834529   20.603234 C.3        1 MOL1        -0.1313
      17    H11     21.053220   18.042570   20.902446 H          1 MOL1         0.0993
      18    H12     20.620520   19.095833   19.569686 H          1 MOL1         0.0993
      19    C6      18.908100   18.287324   20.620021 C.3        1 MOL1        -0.2328
      20    H13     18.634598   17.902731   21.610316 H          1 MOL1         0.1004
      21    H14     18.801152   17.461899   19.904422 H          1 MOL1         0.1004
      22    H15     18.187520   19.067528   20.342585 H          1 MOL1         0.1004
      23    C7      18.727909   19.600862   25.982399 C.3        1 MOL1        -0.0781
      24    H16     18.574337   20.131989   25.042360 H          1 MOL1         0.0978
      25    H17     17.763402   19.288475   26.388837 H          1 MOL1         0.0978
      26    H18     19.232586   20.254999   26.696685 H          1 MOL1         0.0978
@<TRIPOS>BOND
    1     1     2    1
    2     1     3    1
    3     1     4    1
    4     4     5    1
    5     4     6    1
    6     4     7    1
    7     7     8    1
    8     7     9    1
    9     7    10    1
   10    10    11    1
   11    10    12    1
   12    10    13    1
   13    13    14    1
   14    13    15    1
   15    13    16    1
   16    16    17    1
   17    16    18    1
   18    16    19    1
   19    19    20    1
   20    19    21    1
   21    19    22    1
   22     1    23    1
   23    23    24    1
   24    23    25    1
   25    23    26    1
@<TRIPOS>SUBSTRUCTURE
       1 MOL1            1 RESIDUE      1      MOL     
@<SCITEGIC>MOL_PROPERTY
VM2 Rank
SciTegic.value.IntegerValue
131

@<SCITEGIC>MOL_PROPERTY
Conf_Id
SciTegic.value.IntegerValue
1361

@<SCITEGIC>MOL_PROPERTY
Probability
SciTegic.value.DoubleValue
0.02

@<SCITEGIC>MOL_PROPERTY
Sum Probability
SciTegic.value.DoubleValue
99.42

@<SCITEGIC>MOL_PROPERTY
Delta G
SciTegic.value.DoubleValue
3.464

@<SCITEGIC>MOL_PROPERTY
G
SciTegic.value.DoubleValue
78.930

@<SCITEGIC>MOL_PROPERTY
E
SciTegic.value.DoubleValue
45.991

@<SCITEGIC>MOL_PROPERTY
-TS
SciTegic.value.DoubleValue
32.939

@<SCITEGIC>MOL_PROPERTY
U+W
SciTegic.value.DoubleValue
24.530

@<SCITEGIC>MOL_PROPERTY
U
SciTegic.value.DoubleValue
74.342

@<SCITEGIC>MOL_PROPERTY
W
SciTegic.value.DoubleValue
-49.812

@<SCITEGIC>MOL_PROPERTY
W(PB)
SciTegic.value.DoubleValue
-52.010

@<SCITEGIC>MOL_PROPERTY
W(SA)
SciTegic.value.DoubleValue
2.197

@<SCITEGIC>MOL_PROPERTY
Valence
SciTegic.value.DoubleValue
4.643

@<SCITEGIC>MOL_PROPERTY
Coulomb
SciTegic.value.DoubleValue
69.388

@<SCITEGIC>MOL_PROPERTY
VdW
SciTegic.value.DoubleValue
0.311

@<SCITEGIC>MOL_PROPERTY
VdW6
SciTegic.value.DoubleValue
-8.574

@<SCITEGIC>MOL_PROPERTY
VdW12
SciTegic.value.DoubleValue
8.885

@<SCITEGIC>MOL_PROPERTY
Bond
SciTegic.value.DoubleValue
0.266

@<SCITEGIC>MOL_PROPERTY
Angle
SciTegic.value.DoubleValue
1.427

@<SCITEGIC>MOL_PROPERTY
Pdih
SciTegic.value.DoubleValue
2.950

@<SCITEGIC>MOL_PROPERTY
Idih
SciTegic.value.DoubleValue
0.000

@<SCITEGIC>MOL_PROPERTY
Tether
SciTegic.value.DoubleValue
0.000

@<TRIPOS>MOLECULE
guest-s12_vm2.mol2 : vm2 ligand conformer 132
          26          25           1
SMALL
USER_CHARGES
 
@<TRIPOS>ATOM
       1    N1      19.526159   19.297995   25.550261 N.4        1 MOL1        -0.4857
       2    H1      19.416238   18.529234   26.229657 H          1 MOL1         0.3650
       3    H2      18.672976   19.279640   24.972018 H          1 MOL1         0.3650
       4    C1      20.748261   19.058795   24.685020 C.3        1 MOL1         0.0209
       5    H3      21.621413   19.075004   25.342233 H          1 MOL1         0.0967
       6    H4      20.834086   19.895864   23.991319 H          1 MOL1         0.0967
       7    C2      20.718776   17.721152   23.914459 C.3        1 MOL1        -0.1378
       8    H5      21.687352   17.563126   23.421968 H          1 MOL1         0.0993
       9    H6      20.618853   16.908990   24.646789 H          1 MOL1         0.0993
      10    C3      19.576570   17.598757   22.869988 C.3        1 MOL1        -0.1338
      11    H7      18.641899   18.016217   23.265910 H          1 MOL1         0.0993
      12    H8      19.375765   16.529522   22.715298 H          1 MOL1         0.0993
      13    C4      19.885200   18.216154   21.480968 C.3        1 MOL1        -0.1338
      14    H9      20.760993   17.717038   21.043768 H          1 MOL1         0.0993
      15    H10     19.042221   17.988975   20.813687 H          1 MOL1         0.0993
      16    C5      20.116936   19.744888   21.489229 C.3        1 MOL1        -0.1313
      17    H11     21.059455   19.976988   22.001167 H          1 MOL1         0.0993
      18    H12     19.310970   20.243584   22.045406 H          1 MOL1         0.0993
      19    C6      20.181896   20.318766   20.057632 C.3        1 MOL1        -0.2328
      20    H13     20.995595   19.856469   19.483693 H          1 MOL1         0.1004
      21    H14     20.359889   21.401699   20.081879 H          1 MOL1         0.1004
      22    H15     19.241527   20.144872   19.518511 H          1 MOL1         0.1004
      23    C7      19.654202   20.633493   26.269443 C.3        1 MOL1        -0.0781
      24    H16     19.736890   21.433148   25.530100 H          1 MOL1         0.0978
      25    H17     18.768550   20.793406   26.888438 H          1 MOL1         0.0978
      26    H18     20.546388   20.617940   26.899270 H          1 MOL1         0.0978
@<TRIPOS>BOND
    1     1     2    1
    2     1     3    1
    3     1     4    1
    4     4     5    1
    5     4     6    1
    6     4     7    1
    7     7     8    1
    8     7     9    1
    9     7    10    1
   10    10    11    1
   11    10    12    1
   12    10    13    1
   13    13    14    1
   14    13    15    1
   15    13    16    1
   16    16    17    1
   17    16    18    1
   18    16    19    1
   19    19    20    1
   20    19    21    1
   21    19    22    1
   22     1    23    1
   23    23    24    1
   24    23    25    1
   25    23    26    1
@<TRIPOS>SUBSTRUCTURE
       1 MOL1            1 RESIDUE      1      MOL     
@<SCITEGIC>MOL_PROPERTY
VM2 Rank
SciTegic.value.IntegerValue
132

@<SCITEGIC>MOL_PROPERTY
Conf_Id
SciTegic.value.IntegerValue
979

@<SCITEGIC>MOL_PROPERTY
Probability
SciTegic.value.DoubleValue
0.02

@<SCITEGIC>MOL_PROPERTY
Sum Probability
SciTegic.value.DoubleValue
99.44

@<SCITEGIC>MOL_PROPERTY
Delta G
SciTegic.value.DoubleValue
3.533

@<SCITEGIC>MOL_PROPERTY
G
SciTegic.value.DoubleValue
78.999

@<SCITEGIC>MOL_PROPERTY
E
SciTegic.value.DoubleValue
46.508

@<SCITEGIC>MOL_PROPERTY
-TS
SciTegic.value.DoubleValue
32.491

@<SCITEGIC>MOL_PROPERTY
U+W
SciTegic.value.DoubleValue
25.047

@<SCITEGIC>MOL_PROPERTY
U
SciTegic.value.DoubleValue
74.583

@<SCITEGIC>MOL_PROPERTY
W
SciTegic.value.DoubleValue
-49.537

@<SCITEGIC>MOL_PROPERTY
W(PB)
SciTegic.value.DoubleValue
-51.784

@<SCITEGIC>MOL_PROPERTY
W(SA)
SciTegic.value.DoubleValue
2.248

@<SCITEGIC>MOL_PROPERTY
Valence
SciTegic.value.DoubleValue
4.289

@<SCITEGIC>MOL_PROPERTY
Coulomb
SciTegic.value.DoubleValue
70.230

@<SCITEGIC>MOL_PROPERTY
VdW
SciTegic.value.DoubleValue
0.064

@<SCITEGIC>MOL_PROPERTY
VdW6
SciTegic.value.DoubleValue
-7.673

@<SCITEGIC>MOL_PROPERTY
VdW12
SciTegic.value.DoubleValue
7.737

@<SCITEGIC>MOL_PROPERTY
Bond
SciTegic.value.DoubleValue
0.226

@<SCITEGIC>MOL_PROPERTY
Angle
SciTegic.value.DoubleValue
1.376

@<SCITEGIC>MOL_PROPERTY
Pdih
SciTegic.value.DoubleValue
2.687

@<SCITEGIC>MOL_PROPERTY
Idih
SciTegic.value.DoubleValue
0.000

@<SCITEGIC>MOL_PROPERTY
Tether
SciTegic.value.DoubleValue
0.000

@<TRIPOS>MOLECULE
guest-s12_vm2.mol2 : vm2 ligand conformer 133
          26          25           1
SMALL
USER_CHARGES
 
@<TRIPOS>ATOM
       1    N1      20.359217   19.384880   25.579682 N.4        1 MOL1        -0.4857
       2    H1      21.236106   19.546951   25.062551 H          1 MOL1         0.3650
       3    H2      20.577497   18.650324   26.270649 H          1 MOL1         0.3650
       4    C1      19.276058   18.905329   24.633012 C.3        1 MOL1         0.0209
       5    H3      19.068263   19.711773   23.928925 H          1 MOL1         0.0967
       6    H4      18.374596   18.736544   25.227542 H          1 MOL1         0.0967
       7    C2      19.634171   17.608072   23.876178 C.3        1 MOL1        -0.1378
       8    H5      19.847915   16.828637   24.619612 H          1 MOL1         0.0993
       9    H6      18.755698   17.257472   23.318483 H          1 MOL1         0.0993
      10    C3      20.847121   17.731156   22.914858 C.3        1 MOL1        -0.1338
      11    H7      21.274129   16.727355   22.782333 H          1 MOL1         0.0993
      12    H8      21.645829   18.329277   23.371974 H          1 MOL1         0.0993
      13    C4      20.515626   18.281823   21.503234 C.3        1 MOL1        -0.1338
      14    H9      21.431737   18.237821   20.898016 H          1 MOL1         0.0993
      15    H10     19.793959   17.616319   21.009700 H          1 MOL1         0.0993
      16    C5      19.974246   19.730043   21.484171 C.3        1 MOL1        -0.1313
      17    H11     20.619488   20.379871   22.091623 H          1 MOL1         0.0993
      18    H12     18.970742   19.759489   21.927348 H          1 MOL1         0.0993
      19    C6      19.892723   20.288659   20.047394 C.3        1 MOL1        -0.2328
      20    H13     20.884059   20.315938   19.576554 H          1 MOL1         0.1004
      21    H14     19.494433   21.311577   20.051263 H          1 MOL1         0.1004
      22    H15     19.233705   19.672982   19.421399 H          1 MOL1         0.1004
      23    C7      19.908838   20.660039   26.278471 C.3        1 MOL1        -0.0781
      24    H16     18.997200   20.456395   26.844482 H          1 MOL1         0.0978
      25    H17     20.697065   20.994440   26.956690 H          1 MOL1         0.0978
      26    H18     19.715060   21.430900   25.529381 H          1 MOL1         0.0978
@<TRIPOS>BOND
    1     1     2    1
    2     1     3    1
    3     1     4    1
    4     4     5    1
    5     4     6    1
    6     4     7    1
    7     7     8    1
    8     7     9    1
    9     7    10    1
   10    10    11    1
   11    10    12    1
   12    10    13    1
   13    13    14    1
   14    13    15    1
   15    13    16    1
   16    16    17    1
   17    16    18    1
   18    16    19    1
   19    19    20    1
   20    19    21    1
   21    19    22    1
   22     1    23    1
   23    23    24    1
   24    23    25    1
   25    23    26    1
@<TRIPOS>SUBSTRUCTURE
       1 MOL1            1 RESIDUE      1      MOL     
@<SCITEGIC>MOL_PROPERTY
VM2 Rank
SciTegic.value.IntegerValue
133

@<SCITEGIC>MOL_PROPERTY
Conf_Id
SciTegic.value.IntegerValue
986

@<SCITEGIC>MOL_PROPERTY
Probability
SciTegic.value.DoubleValue
0.02

@<SCITEGIC>MOL_PROPERTY
Sum Probability
SciTegic.value.DoubleValue
99.46

@<SCITEGIC>MOL_PROPERTY
Delta G
SciTegic.value.DoubleValue
3.543

@<SCITEGIC>MOL_PROPERTY
G
SciTegic.value.DoubleValue
79.009

@<SCITEGIC>MOL_PROPERTY
E
SciTegic.value.DoubleValue
46.518

@<SCITEGIC>MOL_PROPERTY
-TS
SciTegic.value.DoubleValue
32.491

@<SCITEGIC>MOL_PROPERTY
U+W
SciTegic.value.DoubleValue
25.056

@<SCITEGIC>MOL_PROPERTY
U
SciTegic.value.DoubleValue
74.583

@<SCITEGIC>MOL_PROPERTY
W
SciTegic.value.DoubleValue
-49.527

@<SCITEGIC>MOL_PROPERTY
W(PB)
SciTegic.value.DoubleValue
-51.787

@<SCITEGIC>MOL_PROPERTY
W(SA)
SciTegic.value.DoubleValue
2.260

@<SCITEGIC>MOL_PROPERTY
Valence
SciTegic.value.DoubleValue
4.290

@<SCITEGIC>MOL_PROPERTY
Coulomb
SciTegic.value.DoubleValue
70.230

@<SCITEGIC>MOL_PROPERTY
VdW
SciTegic.value.DoubleValue
0.063

@<SCITEGIC>MOL_PROPERTY
VdW6
SciTegic.value.DoubleValue
-7.673

@<SCITEGIC>MOL_PROPERTY
VdW12
SciTegic.value.DoubleValue
7.736

@<SCITEGIC>MOL_PROPERTY
Bond
SciTegic.value.DoubleValue
0.226

@<SCITEGIC>MOL_PROPERTY
Angle
SciTegic.value.DoubleValue
1.377

@<SCITEGIC>MOL_PROPERTY
Pdih
SciTegic.value.DoubleValue
2.687

@<SCITEGIC>MOL_PROPERTY
Idih
SciTegic.value.DoubleValue
0.000

@<SCITEGIC>MOL_PROPERTY
Tether
SciTegic.value.DoubleValue
0.000

@<TRIPOS>MOLECULE
guest-s12_vm2.mol2 : vm2 ligand conformer 134
          26          25           1
SMALL
USER_CHARGES
 
@<TRIPOS>ATOM
       1    N1      20.778952   18.647136   25.395548 N.4        1 MOL1        -0.4857
       2    H1      21.340913   18.804973   24.547580 H          1 MOL1         0.3650
       3    H2      21.250366   17.875166   25.893278 H          1 MOL1         0.3650
       4    C1      19.368575   18.221112   25.019120 C.3        1 MOL1         0.0209
       5    H3      18.806404   18.128244   25.951747 H          1 MOL1         0.0967
       6    H4      19.428700   17.228316   24.566096 H          1 MOL1         0.0967
       7    C2      18.607819   19.167918   24.061712 C.3        1 MOL1        -0.1378
       8    H5      17.540762   18.918809   24.131901 H          1 MOL1         0.0993
       9    H6      18.691575   20.208073   24.400836 H          1 MOL1         0.0993
      10    C3      19.022831   19.052142   22.572466 C.3        1 MOL1        -0.1338
      11    H7      18.321470   19.652229   21.976436 H          1 MOL1         0.0993
      12    H8      18.895459   18.012641   22.241630 H          1 MOL1         0.0993
      13    C4      20.466370   19.527738   22.271589 C.3        1 MOL1        -0.1338
      14    H9      20.643766   20.489613   22.772409 H          1 MOL1         0.0993
      15    H10     21.190412   18.814230   22.683086 H          1 MOL1         0.0993
      16    C5      20.748719   19.701035   20.759635 C.3        1 MOL1        -0.1313
      17    H11     21.757775   20.117896   20.633452 H          1 MOL1         0.0993
      18    H12     20.056109   20.440663   20.334087 H          1 MOL1         0.0993
      19    C6      20.650686   18.379601   19.963691 C.3        1 MOL1        -0.2328
      20    H13     19.628505   17.981084   19.969183 H          1 MOL1         0.1004
      21    H14     21.319817   17.616136   20.381243 H          1 MOL1         0.1004
      22    H15     20.936921   18.539677   18.916144 H          1 MOL1         0.1004
      23    C7      20.764047   19.893319   26.273240 C.3        1 MOL1        -0.0781
      24    H16     20.174254   19.692893   27.170321 H          1 MOL1         0.0978
      25    H17     21.789179   20.144098   26.554746 H          1 MOL1         0.0978
      26    H18     20.323193   20.723015   25.717363 H          1 MOL1         0.0978
@<TRIPOS>BOND
    1     1     2    1
    2     1     3    1
    3     1     4    1
    4     4     5    1
    5     4     6    1
    6     4     7    1
    7     7     8    1
    8     7     9    1
    9     7    10    1
   10    10    11    1
   11    10    12    1
   12    10    13    1
   13    13    14    1
   14    13    15    1
   15    13    16    1
   16    16    17    1
   17    16    18    1
   18    16    19    1
   19    19    20    1
   20    19    21    1
   21    19    22    1
   22     1    23    1
   23    23    24    1
   24    23    25    1
   25    23    26    1
@<TRIPOS>SUBSTRUCTURE
       1 MOL1            1 RESIDUE      1      MOL     
@<SCITEGIC>MOL_PROPERTY
VM2 Rank
SciTegic.value.IntegerValue
134

@<SCITEGIC>MOL_PROPERTY
Conf_Id
SciTegic.value.IntegerValue
1887

@<SCITEGIC>MOL_PROPERTY
Probability
SciTegic.value.DoubleValue
0.02

@<SCITEGIC>MOL_PROPERTY
Sum Probability
SciTegic.value.DoubleValue
99.47

@<SCITEGIC>MOL_PROPERTY
Delta G
SciTegic.value.DoubleValue
3.549

@<SCITEGIC>MOL_PROPERTY
G
SciTegic.value.DoubleValue
79.015

@<SCITEGIC>MOL_PROPERTY
E
SciTegic.value.DoubleValue
46.512

@<SCITEGIC>MOL_PROPERTY
-TS
SciTegic.value.DoubleValue
32.503

@<SCITEGIC>MOL_PROPERTY
U+W
SciTegic.value.DoubleValue
25.051

@<SCITEGIC>MOL_PROPERTY
U
SciTegic.value.DoubleValue
74.899

@<SCITEGIC>MOL_PROPERTY
W
SciTegic.value.DoubleValue
-49.849

@<SCITEGIC>MOL_PROPERTY
W(PB)
SciTegic.value.DoubleValue
-52.063

@<SCITEGIC>MOL_PROPERTY
W(SA)
SciTegic.value.DoubleValue
2.214

@<SCITEGIC>MOL_PROPERTY
Valence
SciTegic.value.DoubleValue
4.085

@<SCITEGIC>MOL_PROPERTY
Coulomb
SciTegic.value.DoubleValue
70.542

@<SCITEGIC>MOL_PROPERTY
VdW
SciTegic.value.DoubleValue
0.272

@<SCITEGIC>MOL_PROPERTY
VdW6
SciTegic.value.DoubleValue
-8.421

@<SCITEGIC>MOL_PROPERTY
VdW12
SciTegic.value.DoubleValue
8.694

@<SCITEGIC>MOL_PROPERTY
Bond
SciTegic.value.DoubleValue
0.258

@<SCITEGIC>MOL_PROPERTY
Angle
SciTegic.value.DoubleValue
1.368

@<SCITEGIC>MOL_PROPERTY
Pdih
SciTegic.value.DoubleValue
2.459

@<SCITEGIC>MOL_PROPERTY
Idih
SciTegic.value.DoubleValue
0.000

@<SCITEGIC>MOL_PROPERTY
Tether
SciTegic.value.DoubleValue
0.000

@<TRIPOS>MOLECULE
guest-s12_vm2.mol2 : vm2 ligand conformer 135
          26          25           1
SMALL
USER_CHARGES
 
@<TRIPOS>ATOM
       1    N1      19.945526   18.962013   26.280877 N.4        1 MOL1        -0.4857
       2    H1      19.801470   17.947819   26.403636 H          1 MOL1         0.3650
       3    H2      19.496384   19.396023   27.102968 H          1 MOL1         0.3650
       4    C1      19.256919   19.441103   25.013797 C.3        1 MOL1         0.0209
       5    H3      19.467433   20.507364   24.899141 H          1 MOL1         0.0967
       6    H4      18.180858   19.322243   25.164195 H          1 MOL1         0.0967
       7    C2      19.670439   18.684749   23.735066 C.3        1 MOL1        -0.1378
       8    H5      20.744986   18.811069   23.566192 H          1 MOL1         0.0993
       9    H6      19.496260   17.610200   23.878240 H          1 MOL1         0.0993
      10    C3      18.869271   19.178744   22.506498 C.3        1 MOL1        -0.1338
      11    H7      18.982150   20.265259   22.387375 H          1 MOL1         0.0993
      12    H8      17.802059   19.004625   22.702657 H          1 MOL1         0.0993
      13    C4      19.250553   18.456163   21.187815 C.3        1 MOL1        -0.1338
      14    H9      19.585801   17.431035   21.397314 H          1 MOL1         0.0993
      15    H10     18.340935   18.350863   20.580346 H          1 MOL1         0.0993
      16    C5      20.304254   19.195368   20.323531 C.3        1 MOL1        -0.1313
      17    H11     19.914828   20.180325   20.030260 H          1 MOL1         0.0993
      18    H12     20.443718   18.633891   19.389106 H          1 MOL1         0.0993
      19    C6      21.679164   19.370775   21.004936 C.3        1 MOL1        -0.2328
      20    H13     22.409596   19.778927   20.294466 H          1 MOL1         0.1004
      21    H14     22.066534   18.410744   21.369780 H          1 MOL1         0.1004
      22    H15     21.619782   20.068742   21.849023 H          1 MOL1         0.1004
      23    C7      21.431874   19.301085   26.264481 C.3        1 MOL1        -0.0781
      24    H16     21.552294   20.380715   26.151604 H          1 MOL1         0.0978
      25    H17     21.882536   18.976300   27.204965 H          1 MOL1         0.0978
      26    H18     21.911818   18.785095   25.430564 H          1 MOL1         0.0978
@<TRIPOS>BOND
    1     1     2    1
    2     1     3    1
    3     1     4    1
    4     4     5    1
    5     4     6    1
    6     4     7    1
    7     7     8    1
    8     7     9    1
    9     7    10    1
   10    10    11    1
   11    10    12    1
   12    10    13    1
   13    13    14    1
   14    13    15    1
   15    13    16    1
   16    16    17    1
   17    16    18    1
   18    16    19    1
   19    19    20    1
   20    19    21    1
   21    19    22    1
   22     1    23    1
   23    23    24    1
   24    23    25    1
   25    23    26    1
@<TRIPOS>SUBSTRUCTURE
       1 MOL1            1 RESIDUE      1      MOL     
@<SCITEGIC>MOL_PROPERTY
VM2 Rank
SciTegic.value.IntegerValue
135

@<SCITEGIC>MOL_PROPERTY
Conf_Id
SciTegic.value.IntegerValue
1364

@<SCITEGIC>MOL_PROPERTY
Probability
SciTegic.value.DoubleValue
0.02

@<SCITEGIC>MOL_PROPERTY
Sum Probability
SciTegic.value.DoubleValue
99.49

@<SCITEGIC>MOL_PROPERTY
Delta G
SciTegic.value.DoubleValue
3.590

@<SCITEGIC>MOL_PROPERTY
G
SciTegic.value.DoubleValue
79.056

@<SCITEGIC>MOL_PROPERTY
E
SciTegic.value.DoubleValue
46.373

@<SCITEGIC>MOL_PROPERTY
-TS
SciTegic.value.DoubleValue
32.684

@<SCITEGIC>MOL_PROPERTY
U+W
SciTegic.value.DoubleValue
24.911

@<SCITEGIC>MOL_PROPERTY
U
SciTegic.value.DoubleValue
74.399

@<SCITEGIC>MOL_PROPERTY
W
SciTegic.value.DoubleValue
-49.488

@<SCITEGIC>MOL_PROPERTY
W(PB)
SciTegic.value.DoubleValue
-51.724

@<SCITEGIC>MOL_PROPERTY
W(SA)
SciTegic.value.DoubleValue
2.236

@<SCITEGIC>MOL_PROPERTY
Valence
SciTegic.value.DoubleValue
4.963

@<SCITEGIC>MOL_PROPERTY
Coulomb
SciTegic.value.DoubleValue
68.942

@<SCITEGIC>MOL_PROPERTY
VdW
SciTegic.value.DoubleValue
0.494

@<SCITEGIC>MOL_PROPERTY
VdW6
SciTegic.value.DoubleValue
-7.589

@<SCITEGIC>MOL_PROPERTY
VdW12
SciTegic.value.DoubleValue
8.083

@<SCITEGIC>MOL_PROPERTY
Bond
SciTegic.value.DoubleValue
0.249

@<SCITEGIC>MOL_PROPERTY
Angle
SciTegic.value.DoubleValue
1.244

@<SCITEGIC>MOL_PROPERTY
Pdih
SciTegic.value.DoubleValue
3.470

@<SCITEGIC>MOL_PROPERTY
Idih
SciTegic.value.DoubleValue
0.000

@<SCITEGIC>MOL_PROPERTY
Tether
SciTegic.value.DoubleValue
0.000

@<TRIPOS>MOLECULE
guest-s12_vm2.mol2 : vm2 ligand conformer 136
          26          25           1
SMALL
USER_CHARGES
 
@<TRIPOS>ATOM
       1    N1      19.278665   18.493663   25.342341 N.4        1 MOL1        -0.4857
       2    H1      18.939336   17.639001   25.811714 H          1 MOL1         0.3650
       3    H2      18.757334   18.540232   24.455885 H          1 MOL1         0.3650
       4    C1      20.768920   18.364198   25.068972 C.3        1 MOL1         0.0209
       5    H3      20.942697   17.382880   24.620299 H          1 MOL1         0.0967
       6    H4      21.271356   18.380499   26.039408 H          1 MOL1         0.0967
       7    C2      21.387902   19.451808   24.160239 C.3        1 MOL1        -0.1378
       8    H5      21.072363   20.451221   24.485121 H          1 MOL1         0.0993
       9    H6      22.475699   19.422786   24.306691 H          1 MOL1         0.0993
      10    C3      21.110042   19.265108   22.646490 C.3        1 MOL1        -0.1338
      11    H7      21.467185   18.274959   22.332975 H          1 MOL1         0.0993
      12    H8      21.716012   19.998406   22.096639 H          1 MOL1         0.0993
      13    C4      19.624950   19.442057   22.241859 C.3        1 MOL1        -0.1338
      14    H9      19.032577   18.594397   22.606847 H          1 MOL1         0.0993
      15    H10     19.222688   20.344899   22.722018 H          1 MOL1         0.0993
      16    C5      19.420033   19.565451   20.712630 C.3        1 MOL1        -0.1313
      17    H11     19.977416   20.432456   20.331216 H          1 MOL1         0.0993
      18    H12     18.359028   19.771240   20.513109 H          1 MOL1         0.0993
      19    C6      19.837869   18.296490   19.935153 C.3        1 MOL1        -0.2328
      20    H13     20.916444   18.112144   20.015090 H          1 MOL1         0.1004
      21    H14     19.599323   18.402903   18.869000 H          1 MOL1         0.1004
      22    H15     19.308773   17.410932   20.310399 H          1 MOL1         0.1004
      23    C7      18.979619   19.711226   26.209315 C.3        1 MOL1        -0.0781
      24    H16     17.907777   19.747598   26.416350 H          1 MOL1         0.0978
      25    H17     19.533314   19.628260   27.147035 H          1 MOL1         0.0978
      26    H18     19.281484   20.616625   25.679338 H          1 MOL1         0.0978
@<TRIPOS>BOND
    1     1     2    1
    2     1     3    1
    3     1     4    1
    4     4     5    1
    5     4     6    1
    6     4     7    1
    7     7     8    1
    8     7     9    1
    9     7    10    1
   10    10    11    1
   11    10    12    1
   12    10    13    1
   13    13    14    1
   14    13    15    1
   15    13    16    1
   16    16    17    1
   17    16    18    1
   18    16    19    1
   19    19    20    1
   20    19    21    1
   21    19    22    1
   22     1    23    1
   23    23    24    1
   24    23    25    1
   25    23    26    1
@<TRIPOS>SUBSTRUCTURE
       1 MOL1            1 RESIDUE      1      MOL     
@<SCITEGIC>MOL_PROPERTY
VM2 Rank
SciTegic.value.IntegerValue
136

@<SCITEGIC>MOL_PROPERTY
Conf_Id
SciTegic.value.IntegerValue
278

@<SCITEGIC>MOL_PROPERTY
Probability
SciTegic.value.DoubleValue
0.02

@<SCITEGIC>MOL_PROPERTY
Sum Probability
SciTegic.value.DoubleValue
99.51

@<SCITEGIC>MOL_PROPERTY
Delta G
SciTegic.value.DoubleValue
3.611

@<SCITEGIC>MOL_PROPERTY
G
SciTegic.value.DoubleValue
79.077

@<SCITEGIC>MOL_PROPERTY
E
SciTegic.value.DoubleValue
46.576

@<SCITEGIC>MOL_PROPERTY
-TS
SciTegic.value.DoubleValue
32.501

@<SCITEGIC>MOL_PROPERTY
U+W
SciTegic.value.DoubleValue
25.114

@<SCITEGIC>MOL_PROPERTY
U
SciTegic.value.DoubleValue
74.899

@<SCITEGIC>MOL_PROPERTY
W
SciTegic.value.DoubleValue
-49.785

@<SCITEGIC>MOL_PROPERTY
W(PB)
SciTegic.value.DoubleValue
-51.982

@<SCITEGIC>MOL_PROPERTY
W(SA)
SciTegic.value.DoubleValue
2.197

@<SCITEGIC>MOL_PROPERTY
Valence
SciTegic.value.DoubleValue
4.084

@<SCITEGIC>MOL_PROPERTY
Coulomb
SciTegic.value.DoubleValue
70.543

@<SCITEGIC>MOL_PROPERTY
VdW
SciTegic.value.DoubleValue
0.272

@<SCITEGIC>MOL_PROPERTY
VdW6
SciTegic.value.DoubleValue
-8.421

@<SCITEGIC>MOL_PROPERTY
VdW12
SciTegic.value.DoubleValue
8.694

@<SCITEGIC>MOL_PROPERTY
Bond
SciTegic.value.DoubleValue
0.258

@<SCITEGIC>MOL_PROPERTY
Angle
SciTegic.value.DoubleValue
1.368

@<SCITEGIC>MOL_PROPERTY
Pdih
SciTegic.value.DoubleValue
2.458

@<SCITEGIC>MOL_PROPERTY
Idih
SciTegic.value.DoubleValue
0.000

@<SCITEGIC>MOL_PROPERTY
Tether
SciTegic.value.DoubleValue
0.000

@<TRIPOS>MOLECULE
guest-s12_vm2.mol2 : vm2 ligand conformer 137
          26          25           1
SMALL
USER_CHARGES
 
@<TRIPOS>ATOM
       1    N1      20.542992   18.731868   26.138987 N.4        1 MOL1        -0.4857
       2    H1      20.896575   19.159683   27.009561 H          1 MOL1         0.3650
       3    H2      21.268912   18.053029   25.862301 H          1 MOL1         0.3650
       4    C1      20.390824   19.803058   25.071873 C.3        1 MOL1         0.0209
       5    H3      21.324600   20.370562   25.046113 H          1 MOL1         0.0967
       6    H4      19.591635   20.479317   25.385470 H          1 MOL1         0.0967
       7    C2      20.094908   19.261275   23.658616 C.3        1 MOL1        -0.1378
       8    H5      20.880010   18.546781   23.382553 H          1 MOL1         0.0993
       9    H6      19.140628   18.719159   23.660809 H          1 MOL1         0.0993
      10    C3      20.037958   20.403737   22.619374 C.3        1 MOL1        -0.1338
      11    H7      21.024605   20.882338   22.548806 H          1 MOL1         0.0993
      12    H8      19.347997   21.179172   22.980449 H          1 MOL1         0.0993
      13    C4      19.576210   19.963175   21.205874 C.3        1 MOL1        -0.1338
      14    H9      18.546019   19.583275   21.245953 H          1 MOL1         0.0993
      15    H10     19.534096   20.863480   20.577234 H          1 MOL1         0.0993
      16    C5      20.501268   18.931893   20.509084 C.3        1 MOL1        -0.1313
      17    H11     21.538802   19.058497   20.848376 H          1 MOL1         0.0993
      18    H12     20.509175   19.142464   19.430379 H          1 MOL1         0.0993
      19    C6      20.046231   17.466361   20.703829 C.3        1 MOL1        -0.2328
      20    H13     20.720155   16.781676   20.172853 H          1 MOL1         0.1004
      21    H14     19.035333   17.313670   20.304085 H          1 MOL1         0.1004
      22    H15     20.039183   17.171897   21.758872 H          1 MOL1         0.1004
      23    C7      19.217609   18.028634   26.409363 C.3        1 MOL1        -0.0781
      24    H16     18.475408   18.768276   26.717435 H          1 MOL1         0.0978
      25    H17     18.883510   17.524225   25.500524 H          1 MOL1         0.0978
      26    H18     19.358866   17.294415   27.205640 H          1 MOL1         0.0978
@<TRIPOS>BOND
    1     1     2    1
    2     1     3    1
    3     1     4    1
    4     4     5    1
    5     4     6    1
    6     4     7    1
    7     7     8    1
    8     7     9    1
    9     7    10    1
   10    10    11    1
   11    10    12    1
   12    10    13    1
   13    13    14    1
   14    13    15    1
   15    13    16    1
   16    16    17    1
   17    16    18    1
   18    16    19    1
   19    19    20    1
   20    19    21    1
   21    19    22    1
   22     1    23    1
   23    23    24    1
   24    23    25    1
   25    23    26    1
@<TRIPOS>SUBSTRUCTURE
       1 MOL1            1 RESIDUE      1      MOL     
@<SCITEGIC>MOL_PROPERTY
VM2 Rank
SciTegic.value.IntegerValue
137

@<SCITEGIC>MOL_PROPERTY
Conf_Id
SciTegic.value.IntegerValue
1846

@<SCITEGIC>MOL_PROPERTY
Probability
SciTegic.value.DoubleValue
0.02

@<SCITEGIC>MOL_PROPERTY
Sum Probability
SciTegic.value.DoubleValue
99.52

@<SCITEGIC>MOL_PROPERTY
Delta G
SciTegic.value.DoubleValue
3.617

@<SCITEGIC>MOL_PROPERTY
G
SciTegic.value.DoubleValue
79.083

@<SCITEGIC>MOL_PROPERTY
E
SciTegic.value.DoubleValue
46.412

@<SCITEGIC>MOL_PROPERTY
-TS
SciTegic.value.DoubleValue
32.671

@<SCITEGIC>MOL_PROPERTY
U+W
SciTegic.value.DoubleValue
24.950

@<SCITEGIC>MOL_PROPERTY
U
SciTegic.value.DoubleValue
74.475

@<SCITEGIC>MOL_PROPERTY
W
SciTegic.value.DoubleValue
-49.525

@<SCITEGIC>MOL_PROPERTY
W(PB)
SciTegic.value.DoubleValue
-51.777

@<SCITEGIC>MOL_PROPERTY
W(SA)
SciTegic.value.DoubleValue
2.252

@<SCITEGIC>MOL_PROPERTY
Valence
SciTegic.value.DoubleValue
4.983

@<SCITEGIC>MOL_PROPERTY
Coulomb
SciTegic.value.DoubleValue
68.965

@<SCITEGIC>MOL_PROPERTY
VdW
SciTegic.value.DoubleValue
0.526

@<SCITEGIC>MOL_PROPERTY
VdW6
SciTegic.value.DoubleValue
-7.550

@<SCITEGIC>MOL_PROPERTY
VdW12
SciTegic.value.DoubleValue
8.076

@<SCITEGIC>MOL_PROPERTY
Bond
SciTegic.value.DoubleValue
0.247

@<SCITEGIC>MOL_PROPERTY
Angle
SciTegic.value.DoubleValue
1.295

@<SCITEGIC>MOL_PROPERTY
Pdih
SciTegic.value.DoubleValue
3.441

@<SCITEGIC>MOL_PROPERTY
Idih
SciTegic.value.DoubleValue
0.000

@<SCITEGIC>MOL_PROPERTY
Tether
SciTegic.value.DoubleValue
0.000

@<TRIPOS>MOLECULE
guest-s12_vm2.mol2 : vm2 ligand conformer 138
          26          25           1
SMALL
USER_CHARGES
 
@<TRIPOS>ATOM
       1    N1      19.967056   18.963933   26.281593 N.4        1 MOL1        -0.4857
       2    H1      20.260669   19.473582   27.130107 H          1 MOL1         0.3650
       3    H2      20.303880   17.998803   26.421172 H          1 MOL1         0.3650
       4    C1      20.631788   19.581461   25.062584 C.3        1 MOL1         0.0209
       5    H3      21.696437   19.681288   25.288890 H          1 MOL1         0.0967
       6    H4      20.218811   20.584038   24.925962 H          1 MOL1         0.0967
       7    C2      20.470218   18.766518   23.763361 C.3        1 MOL1        -0.1378
       8    H5      20.847562   17.748340   23.925895 H          1 MOL1         0.0993
       9    H6      19.406829   18.674264   23.518785 H          1 MOL1         0.0993
      10    C3      21.238955   19.421247   22.590479 C.3        1 MOL1        -0.1338
      11    H7      22.302907   19.465172   22.862162 H          1 MOL1         0.0993
      12    H8      20.917263   20.463307   22.456043 H          1 MOL1         0.0993
      13    C4      21.105052   18.646059   21.253478 C.3        1 MOL1        -0.1338
      14    H9      22.057407   18.731422   20.711957 H          1 MOL1         0.0993
      15    H10     20.970364   17.572806   21.446237 H          1 MOL1         0.0993
      16    C5      19.986716   19.163001   20.312311 C.3        1 MOL1        -0.1313
      17    H11     20.029554   18.591720   19.374410 H          1 MOL1         0.0993
      18    H12     20.188313   20.208489   20.040075 H          1 MOL1         0.0993
      19    C6      18.560479   19.051587   20.894460 C.3        1 MOL1        -0.2328
      20    H13     17.814154   19.308560   20.131669 H          1 MOL1         0.1004
      21    H14     18.418086   19.741031   21.735622 H          1 MOL1         0.1004
      22    H15     18.350850   18.030420   21.238117 H          1 MOL1         0.1004
      23    C7      18.447736   18.996193   26.158734 C.3        1 MOL1        -0.0781
      24    H16     18.120115   20.030114   26.030221 H          1 MOL1         0.0978
      25    H17     18.141401   18.400132   25.296830 H          1 MOL1         0.0978
      26    H18     18.007164   18.580222   27.067557 H          1 MOL1         0.0978
@<TRIPOS>BOND
    1     1     2    1
    2     1     3    1
    3     1     4    1
    4     4     5    1
    5     4     6    1
    6     4     7    1
    7     7     8    1
    8     7     9    1
    9     7    10    1
   10    10    11    1
   11    10    12    1
   12    10    13    1
   13    13    14    1
   14    13    15    1
   15    13    16    1
   16    16    17    1
   17    16    18    1
   18    16    19    1
   19    19    20    1
   20    19    21    1
   21    19    22    1
   22     1    23    1
   23    23    24    1
   24    23    25    1
   25    23    26    1
@<TRIPOS>SUBSTRUCTURE
       1 MOL1            1 RESIDUE      1      MOL     
@<SCITEGIC>MOL_PROPERTY
VM2 Rank
SciTegic.value.IntegerValue
138

@<SCITEGIC>MOL_PROPERTY
Conf_Id
SciTegic.value.IntegerValue
827

@<SCITEGIC>MOL_PROPERTY
Probability
SciTegic.value.DoubleValue
0.02

@<SCITEGIC>MOL_PROPERTY
Sum Probability
SciTegic.value.DoubleValue
99.54

@<SCITEGIC>MOL_PROPERTY
Delta G
SciTegic.value.DoubleValue
3.636

@<SCITEGIC>MOL_PROPERTY
G
SciTegic.value.DoubleValue
79.102

@<SCITEGIC>MOL_PROPERTY
E
SciTegic.value.DoubleValue
46.419

@<SCITEGIC>MOL_PROPERTY
-TS
SciTegic.value.DoubleValue
32.683

@<SCITEGIC>MOL_PROPERTY
U+W
SciTegic.value.DoubleValue
24.957

@<SCITEGIC>MOL_PROPERTY
U
SciTegic.value.DoubleValue
74.399

@<SCITEGIC>MOL_PROPERTY
W
SciTegic.value.DoubleValue
-49.442

@<SCITEGIC>MOL_PROPERTY
W(PB)
SciTegic.value.DoubleValue
-51.683

@<SCITEGIC>MOL_PROPERTY
W(SA)
SciTegic.value.DoubleValue
2.240

@<SCITEGIC>MOL_PROPERTY
Valence
SciTegic.value.DoubleValue
4.964

@<SCITEGIC>MOL_PROPERTY
Coulomb
SciTegic.value.DoubleValue
68.942

@<SCITEGIC>MOL_PROPERTY
VdW
SciTegic.value.DoubleValue
0.494

@<SCITEGIC>MOL_PROPERTY
VdW6
SciTegic.value.DoubleValue
-7.589

@<SCITEGIC>MOL_PROPERTY
VdW12
SciTegic.value.DoubleValue
8.083

@<SCITEGIC>MOL_PROPERTY
Bond
SciTegic.value.DoubleValue
0.249

@<SCITEGIC>MOL_PROPERTY
Angle
SciTegic.value.DoubleValue
1.245

@<SCITEGIC>MOL_PROPERTY
Pdih
SciTegic.value.DoubleValue
3.470

@<SCITEGIC>MOL_PROPERTY
Idih
SciTegic.value.DoubleValue
0.000

@<SCITEGIC>MOL_PROPERTY
Tether
SciTegic.value.DoubleValue
0.000

@<TRIPOS>MOLECULE
guest-s12_vm2.mol2 : vm2 ligand conformer 139
          26          25           1
SMALL
USER_CHARGES
 
@<TRIPOS>ATOM
       1    N1      20.239721   19.215322   25.837989 N.4        1 MOL1        -0.4857
       2    H1      21.248985   19.005650   25.883392 H          1 MOL1         0.3650
       3    H2      19.783479   18.496291   26.420730 H          1 MOL1         0.3650
       4    C1      19.748960   19.118458   24.407800 C.3        1 MOL1         0.0209
       5    H3      20.252593   19.896616   23.832632 H          1 MOL1         0.0967
       6    H4      18.677333   19.332798   24.407146 H          1 MOL1         0.0967
       7    C2      19.998841   17.737543   23.770615 C.3        1 MOL1        -0.1378
       8    H5      21.068125   17.490288   23.804925 H          1 MOL1         0.0993
       9    H6      19.486575   16.982956   24.382281 H          1 MOL1         0.0993
      10    C3      19.474796   17.629876   22.315883 C.3        1 MOL1        -0.1338
      11    H7      18.511941   18.149020   22.218463 H          1 MOL1         0.0993
      12    H8      19.256097   16.571983   22.114801 H          1 MOL1         0.0993
      13    C4      20.469939   18.110004   21.224414 C.3        1 MOL1        -0.1338
      14    H9      21.385112   17.505281   21.287463 H          1 MOL1         0.0993
      15    H10     20.037029   17.889303   20.238935 H          1 MOL1         0.0993
      16    C5      20.861381   19.608228   21.264028 C.3        1 MOL1        -0.1313
      17    H11     21.569153   19.802857   20.446119 H          1 MOL1         0.0993
      18    H12     21.410529   19.834246   22.186707 H          1 MOL1         0.0993
      19    C6      19.656240   20.563970   21.108114 C.3        1 MOL1        -0.2328
      20    H13     19.108599   20.357002   20.179578 H          1 MOL1         0.1004
      21    H14     19.995235   21.607313   21.071289 H          1 MOL1         0.1004
      22    H15     18.953740   20.473955   21.945114 H          1 MOL1         0.1004
      23    C7      19.958123   20.606598   26.388157 C.3        1 MOL1        -0.0781
      24    H16     18.882199   20.792584   26.360913 H          1 MOL1         0.0978
      25    H17     20.316281   20.663515   27.418503 H          1 MOL1         0.0978
      26    H18     20.477456   21.346970   25.775707 H          1 MOL1         0.0978
@<TRIPOS>BOND
    1     1     2    1
    2     1     3    1
    3     1     4    1
    4     4     5    1
    5     4     6    1
    6     4     7    1
    7     7     8    1
    8     7     9    1
    9     7    10    1
   10    10    11    1
   11    10    12    1
   12    10    13    1
   13    13    14    1
   14    13    15    1
   15    13    16    1
   16    16    17    1
   17    16    18    1
   18    16    19    1
   19    19    20    1
   20    19    21    1
   21    19    22    1
   22     1    23    1
   23    23    24    1
   24    23    25    1
   25    23    26    1
@<TRIPOS>SUBSTRUCTURE
       1 MOL1            1 RESIDUE      1      MOL     
@<SCITEGIC>MOL_PROPERTY
VM2 Rank
SciTegic.value.IntegerValue
139

@<SCITEGIC>MOL_PROPERTY
Conf_Id
SciTegic.value.IntegerValue
154

@<SCITEGIC>MOL_PROPERTY
Probability
SciTegic.value.DoubleValue
0.02

@<SCITEGIC>MOL_PROPERTY
Sum Probability
SciTegic.value.DoubleValue
99.55

@<SCITEGIC>MOL_PROPERTY
Delta G
SciTegic.value.DoubleValue
3.640

@<SCITEGIC>MOL_PROPERTY
G
SciTegic.value.DoubleValue
79.106

@<SCITEGIC>MOL_PROPERTY
E
SciTegic.value.DoubleValue
46.122

@<SCITEGIC>MOL_PROPERTY
-TS
SciTegic.value.DoubleValue
32.984

@<SCITEGIC>MOL_PROPERTY
U+W
SciTegic.value.DoubleValue
24.660

@<SCITEGIC>MOL_PROPERTY
U
SciTegic.value.DoubleValue
74.250

@<SCITEGIC>MOL_PROPERTY
W
SciTegic.value.DoubleValue
-49.590

@<SCITEGIC>MOL_PROPERTY
W(PB)
SciTegic.value.DoubleValue
-51.808

@<SCITEGIC>MOL_PROPERTY
W(SA)
SciTegic.value.DoubleValue
2.218

@<SCITEGIC>MOL_PROPERTY
Valence
SciTegic.value.DoubleValue
4.607

@<SCITEGIC>MOL_PROPERTY
Coulomb
SciTegic.value.DoubleValue
69.758

@<SCITEGIC>MOL_PROPERTY
VdW
SciTegic.value.DoubleValue
-0.115

@<SCITEGIC>MOL_PROPERTY
VdW6
SciTegic.value.DoubleValue
-8.153

@<SCITEGIC>MOL_PROPERTY
VdW12
SciTegic.value.DoubleValue
8.038

@<SCITEGIC>MOL_PROPERTY
Bond
SciTegic.value.DoubleValue
0.239

@<SCITEGIC>MOL_PROPERTY
Angle
SciTegic.value.DoubleValue
1.671

@<SCITEGIC>MOL_PROPERTY
Pdih
SciTegic.value.DoubleValue
2.697

@<SCITEGIC>MOL_PROPERTY
Idih
SciTegic.value.DoubleValue
0.000

@<SCITEGIC>MOL_PROPERTY
Tether
SciTegic.value.DoubleValue
0.000

@<TRIPOS>MOLECULE
guest-s12_vm2.mol2 : vm2 ligand conformer 140
          26          25           1
SMALL
USER_CHARGES
 
@<TRIPOS>ATOM
       1    N1      19.659134   19.154731   25.817341 N.4        1 MOL1        -0.4857
       2    H1      20.211738   18.540880   26.435858 H          1 MOL1         0.3650
       3    H2      18.714108   18.741226   25.793323 H          1 MOL1         0.3650
       4    C1      20.258429   19.171664   24.425857 C.3        1 MOL1         0.0209
       5    H3      21.260163   19.602396   24.498829 H          1 MOL1         0.0967
       6    H4      19.646766   19.833435   23.811103 H          1 MOL1         0.0967
       7    C2      20.344049   17.773615   23.782812 C.3        1 MOL1        -0.1378
       8    H5      20.956876   17.136486   24.434318 H          1 MOL1         0.0993
       9    H6      19.349061   17.310827   23.743981 H          1 MOL1         0.0993
      10    C3      20.979546   17.787059   22.369156 C.3        1 MOL1        -0.1338
      11    H7      21.425417   16.798585   22.191620 H          1 MOL1         0.0993
      12    H8      21.818913   18.494466   22.335569 H          1 MOL1         0.0993
      13    C4      19.985610   18.059404   21.207236 C.3        1 MOL1        -0.1338
      14    H9      20.522654   17.940125   20.256107 H          1 MOL1         0.0993
      15    H10     19.212909   17.278295   21.210447 H          1 MOL1         0.0993
      16    C5      19.291442   19.444177   21.208506 C.3        1 MOL1        -0.1313
      17    H11     18.644353   19.545147   22.088883 H          1 MOL1         0.0993
      18    H12     18.617657   19.494473   20.341740 H          1 MOL1         0.0993
      19    C6      20.281151   20.629281   21.130269 C.3        1 MOL1        -0.2328
      20    H13     19.737446   21.580393   21.062373 H          1 MOL1         0.1004
      21    H14     20.923174   20.546730   20.243748 H          1 MOL1         0.1004
      22    H15     20.926926   20.680050   22.014902 H          1 MOL1         0.1004
      23    C7      19.608640   20.570068   26.375824 C.3        1 MOL1        -0.0781
      24    H16     18.992182   21.192039   25.723073 H          1 MOL1         0.0978
      25    H17     19.175015   20.544335   27.378040 H          1 MOL1         0.0978
      26    H18     20.622342   20.973977   26.422846 H          1 MOL1         0.0978
@<TRIPOS>BOND
    1     1     2    1
    2     1     3    1
    3     1     4    1
    4     4     5    1
    5     4     6    1
    6     4     7    1
    7     7     8    1
    8     7     9    1
    9     7    10    1
   10    10    11    1
   11    10    12    1
   12    10    13    1
   13    13    14    1
   14    13    15    1
   15    13    16    1
   16    16    17    1
   17    16    18    1
   18    16    19    1
   19    19    20    1
   20    19    21    1
   21    19    22    1
   22     1    23    1
   23    23    24    1
   24    23    25    1
   25    23    26    1
@<TRIPOS>SUBSTRUCTURE
       1 MOL1            1 RESIDUE      1      MOL     
@<SCITEGIC>MOL_PROPERTY
VM2 Rank
SciTegic.value.IntegerValue
140

@<SCITEGIC>MOL_PROPERTY
Conf_Id
SciTegic.value.IntegerValue
851

@<SCITEGIC>MOL_PROPERTY
Probability
SciTegic.value.DoubleValue
0.02

@<SCITEGIC>MOL_PROPERTY
Sum Probability
SciTegic.value.DoubleValue
99.57

@<SCITEGIC>MOL_PROPERTY
Delta G
SciTegic.value.DoubleValue
3.648

@<SCITEGIC>MOL_PROPERTY
G
SciTegic.value.DoubleValue
79.114

@<SCITEGIC>MOL_PROPERTY
E
SciTegic.value.DoubleValue
46.130

@<SCITEGIC>MOL_PROPERTY
-TS
SciTegic.value.DoubleValue
32.984

@<SCITEGIC>MOL_PROPERTY
U+W
SciTegic.value.DoubleValue
24.668

@<SCITEGIC>MOL_PROPERTY
U
SciTegic.value.DoubleValue
74.251

@<SCITEGIC>MOL_PROPERTY
W
SciTegic.value.DoubleValue
-49.583

@<SCITEGIC>MOL_PROPERTY
W(PB)
SciTegic.value.DoubleValue
-51.813

@<SCITEGIC>MOL_PROPERTY
W(SA)
SciTegic.value.DoubleValue
2.230

@<SCITEGIC>MOL_PROPERTY
Valence
SciTegic.value.DoubleValue
4.607

@<SCITEGIC>MOL_PROPERTY
Coulomb
SciTegic.value.DoubleValue
69.759

@<SCITEGIC>MOL_PROPERTY
VdW
SciTegic.value.DoubleValue
-0.115

@<SCITEGIC>MOL_PROPERTY
VdW6
SciTegic.value.DoubleValue
-8.153

@<SCITEGIC>MOL_PROPERTY
VdW12
SciTegic.value.DoubleValue
8.038

@<SCITEGIC>MOL_PROPERTY
Bond
SciTegic.value.DoubleValue
0.239

@<SCITEGIC>MOL_PROPERTY
Angle
SciTegic.value.DoubleValue
1.670

@<SCITEGIC>MOL_PROPERTY
Pdih
SciTegic.value.DoubleValue
2.698

@<SCITEGIC>MOL_PROPERTY
Idih
SciTegic.value.DoubleValue
0.000

@<SCITEGIC>MOL_PROPERTY
Tether
SciTegic.value.DoubleValue
0.000

@<TRIPOS>MOLECULE
guest-s12_vm2.mol2 : vm2 ligand conformer 141
          26          25           1
SMALL
USER_CHARGES
 
@<TRIPOS>ATOM
       1    N1      19.437548   18.621656   26.099790 N.4        1 MOL1        -0.4857
       2    H1      18.880888   17.814993   25.777673 H          1 MOL1         0.3650
       3    H2      18.946491   18.965256   26.940473 H          1 MOL1         0.3650
       4    C1      19.449890   19.709277   25.038537 C.3        1 MOL1         0.0209
       5    H3      20.076049   20.527641   25.402654 H          1 MOL1         0.0967
       6    H4      18.426686   20.081667   24.943450 H          1 MOL1         0.0967
       7    C2      19.945138   19.246411   23.653305 C.3        1 MOL1        -0.1378
       8    H5      20.985113   18.903348   23.726121 H          1 MOL1         0.0993
       9    H6      19.337833   18.392925   23.327972 H          1 MOL1         0.0993
      10    C3      19.848055   20.384823   22.612596 C.3        1 MOL1        -0.1338
      11    H7      20.344201   21.278733   23.015691 H          1 MOL1         0.0993
      12    H8      18.793738   20.659586   22.469638 H          1 MOL1         0.0993
      13    C4      20.485703   20.053993   21.238100 C.3        1 MOL1        -0.1338
      14    H9      20.393118   20.949220   20.607618 H          1 MOL1         0.0993
      15    H10     21.565243   19.884832   21.353001 H          1 MOL1         0.0993
      16    C5      19.833799   18.865150   20.485465 C.3        1 MOL1        -0.1313
      17    H11     19.860145   19.077487   19.407399 H          1 MOL1         0.0993
      18    H12     18.770506   18.781945   20.750248 H          1 MOL1         0.0993
      19    C6      20.554563   17.517073   20.722016 C.3        1 MOL1        -0.2328
      20    H13     21.601243   17.569900   20.395368 H          1 MOL1         0.1004
      21    H14     20.068193   16.716474   20.149837 H          1 MOL1         0.1004
      22    H15     20.545491   17.222435   21.776994 H          1 MOL1         0.1004
      23    C7      20.853304   18.191616   26.467191 C.3        1 MOL1        -0.0781
      24    H16     21.411736   19.060893   26.821244 H          1 MOL1         0.0978
      25    H17     20.804159   17.438463   27.256769 H          1 MOL1         0.0978
      26    H18     21.343044   17.769264   25.587525 H          1 MOL1         0.0978
@<TRIPOS>BOND
    1     1     2    1
    2     1     3    1
    3     1     4    1
    4     4     5    1
    5     4     6    1
    6     4     7    1
    7     7     8    1
    8     7     9    1
    9     7    10    1
   10    10    11    1
   11    10    12    1
   12    10    13    1
   13    13    14    1
   14    13    15    1
   15    13    16    1
   16    16    17    1
   17    16    18    1
   18    16    19    1
   19    19    20    1
   20    19    21    1
   21    19    22    1
   22     1    23    1
   23    23    24    1
   24    23    25    1
   25    23    26    1
@<TRIPOS>SUBSTRUCTURE
       1 MOL1            1 RESIDUE      1      MOL     
@<SCITEGIC>MOL_PROPERTY
VM2 Rank
SciTegic.value.IntegerValue
141

@<SCITEGIC>MOL_PROPERTY
Conf_Id
SciTegic.value.IntegerValue
1343

@<SCITEGIC>MOL_PROPERTY
Probability
SciTegic.value.DoubleValue
0.01

@<SCITEGIC>MOL_PROPERTY
Sum Probability
SciTegic.value.DoubleValue
99.58

@<SCITEGIC>MOL_PROPERTY
Delta G
SciTegic.value.DoubleValue
3.652

@<SCITEGIC>MOL_PROPERTY
G
SciTegic.value.DoubleValue
79.118

@<SCITEGIC>MOL_PROPERTY
E
SciTegic.value.DoubleValue
46.447

@<SCITEGIC>MOL_PROPERTY
-TS
SciTegic.value.DoubleValue
32.671

@<SCITEGIC>MOL_PROPERTY
U+W
SciTegic.value.DoubleValue
24.985

@<SCITEGIC>MOL_PROPERTY
U
SciTegic.value.DoubleValue
74.475

@<SCITEGIC>MOL_PROPERTY
W
SciTegic.value.DoubleValue
-49.490

@<SCITEGIC>MOL_PROPERTY
W(PB)
SciTegic.value.DoubleValue
-51.738

@<SCITEGIC>MOL_PROPERTY
W(SA)
SciTegic.value.DoubleValue
2.248

@<SCITEGIC>MOL_PROPERTY
Valence
SciTegic.value.DoubleValue
4.983

@<SCITEGIC>MOL_PROPERTY
Coulomb
SciTegic.value.DoubleValue
68.965

@<SCITEGIC>MOL_PROPERTY
VdW
SciTegic.value.DoubleValue
0.526

@<SCITEGIC>MOL_PROPERTY
VdW6
SciTegic.value.DoubleValue
-7.550

@<SCITEGIC>MOL_PROPERTY
VdW12
SciTegic.value.DoubleValue
8.076

@<SCITEGIC>MOL_PROPERTY
Bond
SciTegic.value.DoubleValue
0.247

@<SCITEGIC>MOL_PROPERTY
Angle
SciTegic.value.DoubleValue
1.294

@<SCITEGIC>MOL_PROPERTY
Pdih
SciTegic.value.DoubleValue
3.442

@<SCITEGIC>MOL_PROPERTY
Idih
SciTegic.value.DoubleValue
0.000

@<SCITEGIC>MOL_PROPERTY
Tether
SciTegic.value.DoubleValue
0.000

@<TRIPOS>MOLECULE
guest-s12_vm2.mol2 : vm2 ligand conformer 142
          26          25           1
SMALL
USER_CHARGES
 
@<TRIPOS>ATOM
       1    N1      19.472484   18.394063   26.078888 N.4        1 MOL1        -0.4857
       2    H1      19.480093   17.418211   25.744236 H          1 MOL1         0.3650
       3    H2      18.693518   18.437575   26.755107 H          1 MOL1         0.3650
       4    C1      19.197038   19.343610   24.924830 C.3        1 MOL1         0.0209
       5    H3      19.234782   20.364660   25.312661 H          1 MOL1         0.0967
       6    H4      18.177959   19.149101   24.580889 H          1 MOL1         0.0967
       7    C2      20.163787   19.199662   23.731913 C.3        1 MOL1        -0.1378
       8    H5      21.187292   19.425456   24.057607 H          1 MOL1         0.0993
       9    H6      20.162211   18.158135   23.392195 H          1 MOL1         0.0993
      10    C3      19.773654   20.151207   22.575274 C.3        1 MOL1        -0.1338
      11    H7      19.810119   21.181793   22.955178 H          1 MOL1         0.0993
      12    H8      18.732366   19.977359   22.270449 H          1 MOL1         0.0993
      13    C4      20.712966   20.048367   21.344970 C.3        1 MOL1        -0.1338
      14    H9      20.810985   21.050599   20.905158 H          1 MOL1         0.0993
      15    H10     21.726269   19.764408   21.660783 H          1 MOL1         0.0993
      16    C5      20.216904   19.096186   20.226577 C.3        1 MOL1        -0.1313
      17    H11     20.917635   19.156540   19.382070 H          1 MOL1         0.0993
      18    H12     19.249355   19.449851   19.843734 H          1 MOL1         0.0993
      19    C6      20.087892   17.618668   20.657349 C.3        1 MOL1        -0.2328
      20    H13     19.863879   16.984751   19.789676 H          1 MOL1         0.1004
      21    H14     19.273183   17.483529   21.379196 H          1 MOL1         0.1004
      22    H15     21.020071   17.253768   21.107598 H          1 MOL1         0.1004
      23    C7      20.783276   18.738235   26.777199 C.3        1 MOL1        -0.0781
      24    H16     20.738679   19.768778   27.136132 H          1 MOL1         0.0978
      25    H17     20.927132   18.059873   27.621129 H          1 MOL1         0.0978
      26    H18     21.609269   18.626513   26.072011 H          1 MOL1         0.0978
@<TRIPOS>BOND
    1     1     2    1
    2     1     3    1
    3     1     4    1
    4     4     5    1
    5     4     6    1
    6     4     7    1
    7     7     8    1
    8     7     9    1
    9     7    10    1
   10    10    11    1
   11    10    12    1
   12    10    13    1
   13    13    14    1
   14    13    15    1
   15    13    16    1
   16    16    17    1
   17    16    18    1
   18    16    19    1
   19    19    20    1
   20    19    21    1
   21    19    22    1
   22     1    23    1
   23    23    24    1
   24    23    25    1
   25    23    26    1
@<TRIPOS>SUBSTRUCTURE
       1 MOL1            1 RESIDUE      1      MOL     
@<SCITEGIC>MOL_PROPERTY
VM2 Rank
SciTegic.value.IntegerValue
142

@<SCITEGIC>MOL_PROPERTY
Conf_Id
SciTegic.value.IntegerValue
1616

@<SCITEGIC>MOL_PROPERTY
Probability
SciTegic.value.DoubleValue
0.01

@<SCITEGIC>MOL_PROPERTY
Sum Probability
SciTegic.value.DoubleValue
99.60

@<SCITEGIC>MOL_PROPERTY
Delta G
SciTegic.value.DoubleValue
3.663

@<SCITEGIC>MOL_PROPERTY
G
SciTegic.value.DoubleValue
79.129

@<SCITEGIC>MOL_PROPERTY
E
SciTegic.value.DoubleValue
46.456

@<SCITEGIC>MOL_PROPERTY
-TS
SciTegic.value.DoubleValue
32.673

@<SCITEGIC>MOL_PROPERTY
U+W
SciTegic.value.DoubleValue
24.994

@<SCITEGIC>MOL_PROPERTY
U
SciTegic.value.DoubleValue
74.461

@<SCITEGIC>MOL_PROPERTY
W
SciTegic.value.DoubleValue
-49.467

@<SCITEGIC>MOL_PROPERTY
W(PB)
SciTegic.value.DoubleValue
-51.713

@<SCITEGIC>MOL_PROPERTY
W(SA)
SciTegic.value.DoubleValue
2.246

@<SCITEGIC>MOL_PROPERTY
Valence
SciTegic.value.DoubleValue
4.969

@<SCITEGIC>MOL_PROPERTY
Coulomb
SciTegic.value.DoubleValue
68.965

@<SCITEGIC>MOL_PROPERTY
VdW
SciTegic.value.DoubleValue
0.528

@<SCITEGIC>MOL_PROPERTY
VdW6
SciTegic.value.DoubleValue
-7.525

@<SCITEGIC>MOL_PROPERTY
VdW12
SciTegic.value.DoubleValue
8.053

@<SCITEGIC>MOL_PROPERTY
Bond
SciTegic.value.DoubleValue
0.248

@<SCITEGIC>MOL_PROPERTY
Angle
SciTegic.value.DoubleValue
1.260

@<SCITEGIC>MOL_PROPERTY
Pdih
SciTegic.value.DoubleValue
3.461

@<SCITEGIC>MOL_PROPERTY
Idih
SciTegic.value.DoubleValue
0.000

@<SCITEGIC>MOL_PROPERTY
Tether
SciTegic.value.DoubleValue
0.000

@<TRIPOS>MOLECULE
guest-s12_vm2.mol2 : vm2 ligand conformer 143
          26          25           1
SMALL
USER_CHARGES
 
@<TRIPOS>ATOM
       1    N1      20.076565   18.645941   26.196147 N.4        1 MOL1        -0.4857
       2    H1      20.248495   17.635690   26.076927 H          1 MOL1         0.3650
       3    H2      19.574480   18.726192   27.094705 H          1 MOL1         0.3650
       4    C1      19.194058   19.164876   25.073090 C.3        1 MOL1         0.0209
       5    H3      19.067009   20.241094   25.214501 H          1 MOL1         0.0967
       6    H4      18.215635   18.690496   25.183967 H          1 MOL1         0.0967
       7    C2      19.730161   18.882001   23.654998 C.3        1 MOL1        -0.1378
       8    H5      20.695743   19.385574   23.527935 H          1 MOL1         0.0993
       9    H6      19.901627   17.803869   23.538307 H          1 MOL1         0.0993
      10    C3      18.743124   19.373868   22.572250 C.3        1 MOL1        -0.1338
      11    H7      18.646576   20.466616   22.636357 H          1 MOL1         0.0993
      12    H8      17.745538   18.966433   22.787904 H          1 MOL1         0.0993
      13    C4      19.128010   18.974233   21.123991 C.3        1 MOL1        -0.1338
      14    H9      19.121184   17.880536   21.019087 H          1 MOL1         0.0993
      15    H10     18.332992   19.339079   20.458900 H          1 MOL1         0.0993
      16    C5      20.477368   19.552497   20.624261 C.3        1 MOL1        -0.1313
      17    H11     20.688247   20.511723   21.117263 H          1 MOL1         0.0993
      18    H12     20.385270   19.778371   19.552576 H          1 MOL1         0.0993
      19    C6      21.667806   18.581356   20.804650 C.3        1 MOL1        -0.2328
      20    H13     21.839983   18.328446   21.856449 H          1 MOL1         0.1004
      21    H14     22.591132   19.029898   20.415826 H          1 MOL1         0.1004
      22    H15     21.496638   17.645876   20.256371 H          1 MOL1         0.1004
      23    C7      21.390908   19.415227   26.267614 C.3        1 MOL1        -0.0781
      24    H16     21.177890   20.476683   26.411766 H          1 MOL1         0.0978
      25    H17     21.979044   19.039877   27.108031 H          1 MOL1         0.0978
      26    H18     21.945773   19.271063   25.338441 H          1 MOL1         0.0978
@<TRIPOS>BOND
    1     1     2    1
    2     1     3    1
    3     1     4    1
    4     4     5    1
    5     4     6    1
    6     4     7    1
    7     7     8    1
    8     7     9    1
    9     7    10    1
   10    10    11    1
   11    10    12    1
   12    10    13    1
   13    13    14    1
   14    13    15    1
   15    13    16    1
   16    16    17    1
   17    16    18    1
   18    16    19    1
   19    19    20    1
   20    19    21    1
   21    19    22    1
   22     1    23    1
   23    23    24    1
   24    23    25    1
   25    23    26    1
@<TRIPOS>SUBSTRUCTURE
       1 MOL1            1 RESIDUE      1      MOL     
@<SCITEGIC>MOL_PROPERTY
VM2 Rank
SciTegic.value.IntegerValue
143

@<SCITEGIC>MOL_PROPERTY
Conf_Id
SciTegic.value.IntegerValue
1258

@<SCITEGIC>MOL_PROPERTY
Probability
SciTegic.value.DoubleValue
0.01

@<SCITEGIC>MOL_PROPERTY
Sum Probability
SciTegic.value.DoubleValue
99.61

@<SCITEGIC>MOL_PROPERTY
Delta G
SciTegic.value.DoubleValue
3.683

@<SCITEGIC>MOL_PROPERTY
G
SciTegic.value.DoubleValue
79.149

@<SCITEGIC>MOL_PROPERTY
E
SciTegic.value.DoubleValue
46.473

@<SCITEGIC>MOL_PROPERTY
-TS
SciTegic.value.DoubleValue
32.676

@<SCITEGIC>MOL_PROPERTY
U+W
SciTegic.value.DoubleValue
25.012

@<SCITEGIC>MOL_PROPERTY
U
SciTegic.value.DoubleValue
74.458

@<SCITEGIC>MOL_PROPERTY
W
SciTegic.value.DoubleValue
-49.446

@<SCITEGIC>MOL_PROPERTY
W(PB)
SciTegic.value.DoubleValue
-51.669

@<SCITEGIC>MOL_PROPERTY
W(SA)
SciTegic.value.DoubleValue
2.223

@<SCITEGIC>MOL_PROPERTY
Valence
SciTegic.value.DoubleValue
4.984

@<SCITEGIC>MOL_PROPERTY
Coulomb
SciTegic.value.DoubleValue
68.955

@<SCITEGIC>MOL_PROPERTY
VdW
SciTegic.value.DoubleValue
0.518

@<SCITEGIC>MOL_PROPERTY
VdW6
SciTegic.value.DoubleValue
-7.574

@<SCITEGIC>MOL_PROPERTY
VdW12
SciTegic.value.DoubleValue
8.093

@<SCITEGIC>MOL_PROPERTY
Bond
SciTegic.value.DoubleValue
0.249

@<SCITEGIC>MOL_PROPERTY
Angle
SciTegic.value.DoubleValue
1.288

@<SCITEGIC>MOL_PROPERTY
Pdih
SciTegic.value.DoubleValue
3.448

@<SCITEGIC>MOL_PROPERTY
Idih
SciTegic.value.DoubleValue
0.000

@<SCITEGIC>MOL_PROPERTY
Tether
SciTegic.value.DoubleValue
0.000

@<TRIPOS>MOLECULE
guest-s12_vm2.mol2 : vm2 ligand conformer 144
          26          25           1
SMALL
USER_CHARGES
 
@<TRIPOS>ATOM
       1    N1      19.908656   18.628674   26.190137 N.4        1 MOL1        -0.4857
       2    H1      20.320182   18.801839   27.121049 H          1 MOL1         0.3650
       3    H2      19.952505   17.605397   26.066203 H          1 MOL1         0.3650
       4    C1      20.744898   19.322913   25.128018 C.3        1 MOL1         0.0209
       5    H3      21.788626   19.054612   25.310468 H          1 MOL1         0.0967
       6    H4      20.642269   20.401605   25.270410 H          1 MOL1         0.0967
       7    C2      20.377414   18.948092   23.677891 C.3        1 MOL1        -0.1378
       8    H5      20.435303   17.858395   23.557076 H          1 MOL1         0.0993
       9    H6      19.341484   19.247691   23.479972 H          1 MOL1         0.0993
      10    C3      21.318443   19.636556   22.663492 C.3        1 MOL1        -0.1338
      11    H7      22.360064   19.437056   22.951442 H          1 MOL1         0.0993
      12    H8      21.187992   20.725848   22.726391 H          1 MOL1         0.0993
      13    C4      21.124509   19.177881   21.194715 C.3        1 MOL1        -0.1338
      14    H9      21.874232   19.700301   20.584383 H          1 MOL1         0.0993
      15    H10     21.359082   18.108808   21.098370 H          1 MOL1         0.0993
      16    C5      19.724670   19.475703   20.597520 C.3        1 MOL1        -0.1313
      17    H11     19.844198   19.723036   19.533306 H          1 MOL1         0.0993
      18    H12     19.290716   20.369220   21.067566 H          1 MOL1         0.0993
      19    C6      18.744820   18.283243   20.701120 C.3        1 MOL1        -0.2328
      20    H13     19.139095   17.405344   20.173040 H          1 MOL1         0.1004
      21    H14     17.779609   18.539112   20.245268 H          1 MOL1         0.1004
      22    H15     18.553838   17.993464   21.740083 H          1 MOL1         0.1004
      23    C7      18.464590   19.116938   26.164106 C.3        1 MOL1        -0.0781
      24    H16     18.016495   18.870736   25.199422 H          1 MOL1         0.0978
      25    H17     17.906811   18.624725   26.963921 H          1 MOL1         0.0978
      26    H18     18.448835   20.198468   26.315401 H          1 MOL1         0.0978
@<TRIPOS>BOND
    1     1     2    1
    2     1     3    1
    3     1     4    1
    4     4     5    1
    5     4     6    1
    6     4     7    1
    7     7     8    1
    8     7     9    1
    9     7    10    1
   10    10    11    1
   11    10    12    1
   12    10    13    1
   13    13    14    1
   14    13    15    1
   15    13    16    1
   16    16    17    1
   17    16    18    1
   18    16    19    1
   19    19    20    1
   20    19    21    1
   21    19    22    1
   22     1    23    1
   23    23    24    1
   24    23    25    1
   25    23    26    1
@<TRIPOS>SUBSTRUCTURE
       1 MOL1            1 RESIDUE      1      MOL     
@<SCITEGIC>MOL_PROPERTY
VM2 Rank
SciTegic.value.IntegerValue
144

@<SCITEGIC>MOL_PROPERTY
Conf_Id
SciTegic.value.IntegerValue
768

@<SCITEGIC>MOL_PROPERTY
Probability
SciTegic.value.DoubleValue
0.01

@<SCITEGIC>MOL_PROPERTY
Sum Probability
SciTegic.value.DoubleValue
99.63

@<SCITEGIC>MOL_PROPERTY
Delta G
SciTegic.value.DoubleValue
3.684

@<SCITEGIC>MOL_PROPERTY
G
SciTegic.value.DoubleValue
79.150

@<SCITEGIC>MOL_PROPERTY
E
SciTegic.value.DoubleValue
46.475

@<SCITEGIC>MOL_PROPERTY
-TS
SciTegic.value.DoubleValue
32.676

@<SCITEGIC>MOL_PROPERTY
U+W
SciTegic.value.DoubleValue
25.013

@<SCITEGIC>MOL_PROPERTY
U
SciTegic.value.DoubleValue
74.458

@<SCITEGIC>MOL_PROPERTY
W
SciTegic.value.DoubleValue
-49.445

@<SCITEGIC>MOL_PROPERTY
W(PB)
SciTegic.value.DoubleValue
-51.689

@<SCITEGIC>MOL_PROPERTY
W(SA)
SciTegic.value.DoubleValue
2.244

@<SCITEGIC>MOL_PROPERTY
Valence
SciTegic.value.DoubleValue
4.984

@<SCITEGIC>MOL_PROPERTY
Coulomb
SciTegic.value.DoubleValue
68.956

@<SCITEGIC>MOL_PROPERTY
VdW
SciTegic.value.DoubleValue
0.518

@<SCITEGIC>MOL_PROPERTY
VdW6
SciTegic.value.DoubleValue
-7.574

@<SCITEGIC>MOL_PROPERTY
VdW12
SciTegic.value.DoubleValue
8.093

@<SCITEGIC>MOL_PROPERTY
Bond
SciTegic.value.DoubleValue
0.249

@<SCITEGIC>MOL_PROPERTY
Angle
SciTegic.value.DoubleValue
1.288

@<SCITEGIC>MOL_PROPERTY
Pdih
SciTegic.value.DoubleValue
3.448

@<SCITEGIC>MOL_PROPERTY
Idih
SciTegic.value.DoubleValue
0.000

@<SCITEGIC>MOL_PROPERTY
Tether
SciTegic.value.DoubleValue
0.000

@<TRIPOS>MOLECULE
guest-s12_vm2.mol2 : vm2 ligand conformer 145
          26          25           1
SMALL
USER_CHARGES
 
@<TRIPOS>ATOM
       1    N1      20.584544   19.278040   25.431259 N.4        1 MOL1        -0.4857
       2    H1      21.108024   19.603223   24.606083 H          1 MOL1         0.3650
       3    H2      21.125373   18.483435   25.806612 H          1 MOL1         0.3650
       4    C1      19.198615   18.817264   25.022520 C.3        1 MOL1         0.0209
       5    H3      18.636410   19.684399   24.667080 H          1 MOL1         0.0967
       6    H4      18.710012   18.443050   25.925738 H          1 MOL1         0.0967
       7    C2      19.185810   17.709703   23.947876 C.3        1 MOL1        -0.1378
       8    H5      19.951814   16.956095   24.173955 H          1 MOL1         0.0993
       9    H6      18.221680   17.188585   24.016572 H          1 MOL1         0.0993
      10    C3      19.345172   18.224928   22.494437 C.3        1 MOL1        -0.1338
      11    H7      18.531457   18.928298   22.272291 H          1 MOL1         0.0993
      12    H8      19.210513   17.373855   21.812645 H          1 MOL1         0.0993
      13    C4      20.711296   18.893277   22.198656 C.3        1 MOL1        -0.1338
      14    H9      20.782751   19.851274   22.728852 H          1 MOL1         0.0993
      15    H10     21.518605   18.253067   22.580344 H          1 MOL1         0.0993
      16    C5      20.954909   19.142490   20.690537 C.3        1 MOL1        -0.1313
      17    H11     20.919596   18.188942   20.145229 H          1 MOL1         0.0993
      18    H12     21.972859   19.534604   20.556665 H          1 MOL1         0.0993
      19    C6      19.950529   20.136546   20.064094 C.3        1 MOL1        -0.2328
      20    H13     20.215102   20.342846   19.018935 H          1 MOL1         0.1004
      21    H14     19.950474   21.091856   20.604804 H          1 MOL1         0.1004
      22    H15     18.929047   19.736367   20.072786 H          1 MOL1         0.1004
      23    C7      20.477125   20.387752   26.467621 C.3        1 MOL1        -0.0781
      24    H16     19.928700   21.228809   26.037760 H          1 MOL1         0.0978
      25    H17     19.946974   20.009731   27.344527 H          1 MOL1         0.0978
      26    H18     21.481007   20.709323   26.753842 H          1 MOL1         0.0978
@<TRIPOS>BOND
    1     1     2    1
    2     1     3    1
    3     1     4    1
    4     4     5    1
    5     4     6    1
    6     4     7    1
    7     7     8    1
    8     7     9    1
    9     7    10    1
   10    10    11    1
   11    10    12    1
   12    10    13    1
   13    13    14    1
   14    13    15    1
   15    13    16    1
   16    16    17    1
   17    16    18    1
   18    16    19    1
   19    19    20    1
   20    19    21    1
   21    19    22    1
   22     1    23    1
   23    23    24    1
   24    23    25    1
   25    23    26    1
@<TRIPOS>SUBSTRUCTURE
       1 MOL1            1 RESIDUE      1      MOL     
@<SCITEGIC>MOL_PROPERTY
VM2 Rank
SciTegic.value.IntegerValue
145

@<SCITEGIC>MOL_PROPERTY
Conf_Id
SciTegic.value.IntegerValue
1600

@<SCITEGIC>MOL_PROPERTY
Probability
SciTegic.value.DoubleValue
0.01

@<SCITEGIC>MOL_PROPERTY
Sum Probability
SciTegic.value.DoubleValue
99.64

@<SCITEGIC>MOL_PROPERTY
Delta G
SciTegic.value.DoubleValue
3.706

@<SCITEGIC>MOL_PROPERTY
G
SciTegic.value.DoubleValue
79.172

@<SCITEGIC>MOL_PROPERTY
E
SciTegic.value.DoubleValue
46.700

@<SCITEGIC>MOL_PROPERTY
-TS
SciTegic.value.DoubleValue
32.472

@<SCITEGIC>MOL_PROPERTY
U+W
SciTegic.value.DoubleValue
25.238

@<SCITEGIC>MOL_PROPERTY
U
SciTegic.value.DoubleValue
74.474

@<SCITEGIC>MOL_PROPERTY
W
SciTegic.value.DoubleValue
-49.236

@<SCITEGIC>MOL_PROPERTY
W(PB)
SciTegic.value.DoubleValue
-51.484

@<SCITEGIC>MOL_PROPERTY
W(SA)
SciTegic.value.DoubleValue
2.247

@<SCITEGIC>MOL_PROPERTY
Valence
SciTegic.value.DoubleValue
3.793

@<SCITEGIC>MOL_PROPERTY
Coulomb
SciTegic.value.DoubleValue
70.589

@<SCITEGIC>MOL_PROPERTY
VdW
SciTegic.value.DoubleValue
0.093

@<SCITEGIC>MOL_PROPERTY
VdW6
SciTegic.value.DoubleValue
-7.603

@<SCITEGIC>MOL_PROPERTY
VdW12
SciTegic.value.DoubleValue
7.696

@<SCITEGIC>MOL_PROPERTY
Bond
SciTegic.value.DoubleValue
0.211

@<SCITEGIC>MOL_PROPERTY
Angle
SciTegic.value.DoubleValue
1.117

@<SCITEGIC>MOL_PROPERTY
Pdih
SciTegic.value.DoubleValue
2.465

@<SCITEGIC>MOL_PROPERTY
Idih
SciTegic.value.DoubleValue
0.000

@<SCITEGIC>MOL_PROPERTY
Tether
SciTegic.value.DoubleValue
0.000

@<TRIPOS>MOLECULE
guest-s12_vm2.mol2 : vm2 ligand conformer 146
          26          25           1
SMALL
USER_CHARGES
 
@<TRIPOS>ATOM
       1    N1      19.338324   19.146588   25.387209 N.4        1 MOL1        -0.4857
       2    H1      18.950049   18.254043   25.729833 H          1 MOL1         0.3650
       3    H2      18.817518   19.361524   24.525087 H          1 MOL1         0.3650
       4    C1      20.814926   18.987663   25.079687 C.3        1 MOL1         0.0209
       5    H3      21.306453   18.716813   26.017563 H          1 MOL1         0.0967
       6    H4      21.207573   19.955488   24.758005 H          1 MOL1         0.0967
       7    C2      21.133218   17.915018   24.016749 C.3        1 MOL1        -0.1378
       8    H5      22.177542   17.605673   24.156475 H          1 MOL1         0.0993
       9    H6      20.527119   17.016731   24.194293 H          1 MOL1         0.0993
      10    C3      20.971975   18.396449   22.551975 C.3        1 MOL1        -0.1338
      11    H7      21.328286   17.597157   21.887541 H          1 MOL1         0.0993
      12    H8      21.634790   19.255528   22.382062 H          1 MOL1         0.0993
      13    C4      19.520667   18.767689   22.156553 C.3        1 MOL1        -0.1338
      14    H9      18.839797   17.970537   22.485593 H          1 MOL1         0.0993
      15    H10     19.214329   19.685836   22.673402 H          1 MOL1         0.0993
      16    C5      19.336471   18.971808   20.633307 C.3        1 MOL1        -0.1313
      17    H11     18.271052   19.144125   20.425733 H          1 MOL1         0.0993
      18    H12     19.607775   18.050625   20.098816 H          1 MOL1         0.0993
      19    C6      20.152878   20.157983   20.071326 C.3        1 MOL1        -0.2328
      20    H13     21.232174   19.979455   20.154363 H          1 MOL1         0.1004
      21    H14     19.916008   21.088295   20.603676 H          1 MOL1         0.1004
      22    H15     19.924845   20.312334   19.008739 H          1 MOL1         0.1004
      23    C7      19.139541   20.246802   26.420195 C.3        1 MOL1        -0.0781
      24    H16     19.674229   19.981192   27.334790 H          1 MOL1         0.0978
      25    H17     19.529382   21.186746   26.023386 H          1 MOL1         0.0978
      26    H18     18.073206   20.350096   26.633197 H          1 MOL1         0.0978
@<TRIPOS>BOND
    1     1     2    1
    2     1     3    1
    3     1     4    1
    4     4     5    1
    5     4     6    1
    6     4     7    1
    7     7     8    1
    8     7     9    1
    9     7    10    1
   10    10    11    1
   11    10    12    1
   12    10    13    1
   13    13    14    1
   14    13    15    1
   15    13    16    1
   16    16    17    1
   17    16    18    1
   18    16    19    1
   19    19    20    1
   20    19    21    1
   21    19    22    1
   22     1    23    1
   23    23    24    1
   24    23    25    1
   25    23    26    1
@<TRIPOS>SUBSTRUCTURE
       1 MOL1            1 RESIDUE      1      MOL     
@<SCITEGIC>MOL_PROPERTY
VM2 Rank
SciTegic.value.IntegerValue
146

@<SCITEGIC>MOL_PROPERTY
Conf_Id
SciTegic.value.IntegerValue
1100

@<SCITEGIC>MOL_PROPERTY
Probability
SciTegic.value.DoubleValue
0.01

@<SCITEGIC>MOL_PROPERTY
Sum Probability
SciTegic.value.DoubleValue
99.65

@<SCITEGIC>MOL_PROPERTY
Delta G
SciTegic.value.DoubleValue
3.723

@<SCITEGIC>MOL_PROPERTY
G
SciTegic.value.DoubleValue
79.189

@<SCITEGIC>MOL_PROPERTY
E
SciTegic.value.DoubleValue
46.718

@<SCITEGIC>MOL_PROPERTY
-TS
SciTegic.value.DoubleValue
32.472

@<SCITEGIC>MOL_PROPERTY
U+W
SciTegic.value.DoubleValue
25.256

@<SCITEGIC>MOL_PROPERTY
U
SciTegic.value.DoubleValue
74.474

@<SCITEGIC>MOL_PROPERTY
W
SciTegic.value.DoubleValue
-49.219

@<SCITEGIC>MOL_PROPERTY
W(PB)
SciTegic.value.DoubleValue
-51.462

@<SCITEGIC>MOL_PROPERTY
W(SA)
SciTegic.value.DoubleValue
2.244

@<SCITEGIC>MOL_PROPERTY
Valence
SciTegic.value.DoubleValue
3.793

@<SCITEGIC>MOL_PROPERTY
Coulomb
SciTegic.value.DoubleValue
70.589

@<SCITEGIC>MOL_PROPERTY
VdW
SciTegic.value.DoubleValue
0.093

@<SCITEGIC>MOL_PROPERTY
VdW6
SciTegic.value.DoubleValue
-7.603

@<SCITEGIC>MOL_PROPERTY
VdW12
SciTegic.value.DoubleValue
7.696

@<SCITEGIC>MOL_PROPERTY
Bond
SciTegic.value.DoubleValue
0.211

@<SCITEGIC>MOL_PROPERTY
Angle
SciTegic.value.DoubleValue
1.117

@<SCITEGIC>MOL_PROPERTY
Pdih
SciTegic.value.DoubleValue
2.465

@<SCITEGIC>MOL_PROPERTY
Idih
SciTegic.value.DoubleValue
0.000

@<SCITEGIC>MOL_PROPERTY
Tether
SciTegic.value.DoubleValue
0.000

@<TRIPOS>MOLECULE
guest-s12_vm2.mol2 : vm2 ligand conformer 147
          26          25           1
SMALL
USER_CHARGES
 
@<TRIPOS>ATOM
       1    N1      19.541453   19.825951   25.487376 N.4        1 MOL1        -0.4857
       2    H1      18.893886   20.218507   26.189055 H          1 MOL1         0.3650
       3    H2      19.376548   20.376984   24.632630 H          1 MOL1         0.3650
       4    C1      19.196435   18.367663   25.238188 C.3        1 MOL1         0.0209
       5    H3      18.123644   18.317230   25.035471 H          1 MOL1         0.0967
       6    H4      19.384014   17.827990   26.169863 H          1 MOL1         0.0967
       7    C2      19.956069   17.669144   24.085650 C.3        1 MOL1        -0.1378
       8    H5      21.037717   17.679123   24.271821 H          1 MOL1         0.0993
       9    H6      19.662774   16.611144   24.103579 H          1 MOL1         0.0993
      10    C3      19.639739   18.230453   22.675152 C.3        1 MOL1        -0.1338
      11    H7      18.575556   18.495588   22.608708 H          1 MOL1         0.0993
      12    H8      19.798595   17.421629   21.950066 H          1 MOL1         0.0993
      13    C4      20.523442   19.438022   22.268179 C.3        1 MOL1        -0.1338
      14    H9      20.434528   20.238267   23.010454 H          1 MOL1         0.0993
      15    H10     21.580239   19.137371   22.269022 H          1 MOL1         0.0993
      16    C5      20.158926   20.027837   20.883940 C.3        1 MOL1        -0.1313
      17    H11     20.754223   20.937263   20.721173 H          1 MOL1         0.0993
      18    H12     19.106823   20.345434   20.880236 H          1 MOL1         0.0993
      19    C6      20.411657   19.053158   19.710990 C.3        1 MOL1        -0.2328
      20    H13     19.745773   18.182713   19.758282 H          1 MOL1         0.1004
      21    H14     21.448994   18.694114   19.711919 H          1 MOL1         0.1004
      22    H15     20.231074   19.553301   18.750695 H          1 MOL1         0.1004
      23    C7      20.980280   19.977771   25.967525 C.3        1 MOL1        -0.0781
      24    H16     21.659115   19.611497   25.194773 H          1 MOL1         0.0978
      25    H17     21.182105   21.033019   26.164331 H          1 MOL1         0.0978
      26    H18     21.115132   19.399319   26.884026 H          1 MOL1         0.0978
@<TRIPOS>BOND
    1     1     2    1
    2     1     3    1
    3     1     4    1
    4     4     5    1
    5     4     6    1
    6     4     7    1
    7     7     8    1
    8     7     9    1
    9     7    10    1
   10    10    11    1
   11    10    12    1
   12    10    13    1
   13    13    14    1
   14    13    15    1
   15    13    16    1
   16    16    17    1
   17    16    18    1
   18    16    19    1
   19    19    20    1
   20    19    21    1
   21    19    22    1
   22     1    23    1
   23    23    24    1
   24    23    25    1
   25    23    26    1
@<TRIPOS>SUBSTRUCTURE
       1 MOL1            1 RESIDUE      1      MOL     
@<SCITEGIC>MOL_PROPERTY
VM2 Rank
SciTegic.value.IntegerValue
147

@<SCITEGIC>MOL_PROPERTY
Conf_Id
SciTegic.value.IntegerValue
1079

@<SCITEGIC>MOL_PROPERTY
Probability
SciTegic.value.DoubleValue
0.01

@<SCITEGIC>MOL_PROPERTY
Sum Probability
SciTegic.value.DoubleValue
99.67

@<SCITEGIC>MOL_PROPERTY
Delta G
SciTegic.value.DoubleValue
3.726

@<SCITEGIC>MOL_PROPERTY
G
SciTegic.value.DoubleValue
79.192

@<SCITEGIC>MOL_PROPERTY
E
SciTegic.value.DoubleValue
46.516

@<SCITEGIC>MOL_PROPERTY
-TS
SciTegic.value.DoubleValue
32.676

@<SCITEGIC>MOL_PROPERTY
U+W
SciTegic.value.DoubleValue
25.054

@<SCITEGIC>MOL_PROPERTY
U
SciTegic.value.DoubleValue
75.034

@<SCITEGIC>MOL_PROPERTY
W
SciTegic.value.DoubleValue
-49.980

@<SCITEGIC>MOL_PROPERTY
W(PB)
SciTegic.value.DoubleValue
-52.181

@<SCITEGIC>MOL_PROPERTY
W(SA)
SciTegic.value.DoubleValue
2.201

@<SCITEGIC>MOL_PROPERTY
Valence
SciTegic.value.DoubleValue
4.542

@<SCITEGIC>MOL_PROPERTY
Coulomb
SciTegic.value.DoubleValue
70.171

@<SCITEGIC>MOL_PROPERTY
VdW
SciTegic.value.DoubleValue
0.321

@<SCITEGIC>MOL_PROPERTY
VdW6
SciTegic.value.DoubleValue
-8.485

@<SCITEGIC>MOL_PROPERTY
VdW12
SciTegic.value.DoubleValue
8.806

@<SCITEGIC>MOL_PROPERTY
Bond
SciTegic.value.DoubleValue
0.270

@<SCITEGIC>MOL_PROPERTY
Angle
SciTegic.value.DoubleValue
1.463

@<SCITEGIC>MOL_PROPERTY
Pdih
SciTegic.value.DoubleValue
2.809

@<SCITEGIC>MOL_PROPERTY
Idih
SciTegic.value.DoubleValue
0.000

@<SCITEGIC>MOL_PROPERTY
Tether
SciTegic.value.DoubleValue
0.000

@<TRIPOS>MOLECULE
guest-s12_vm2.mol2 : vm2 ligand conformer 148
          26          25           1
SMALL
USER_CHARGES
 
@<TRIPOS>ATOM
       1    N1      20.715752   18.987666   25.841775 N.4        1 MOL1        -0.4857
       2    H1      21.708545   18.983124   26.124821 H          1 MOL1         0.3650
       3    H2      20.268365   18.265885   26.427616 H          1 MOL1         0.3650
       4    C1      20.603098   18.617060   24.372900 C.3        1 MOL1         0.0209
       5    H3      21.209752   17.721467   24.216748 H          1 MOL1         0.0967
       6    H4      21.045249   19.427887   23.792209 H          1 MOL1         0.0967
       7    C2      19.162828   18.332882   23.894406 C.3        1 MOL1        -0.1378
       8    H5      18.750446   17.529253   24.518675 H          1 MOL1         0.0993
       9    H6      18.521449   19.208834   24.054938 H          1 MOL1         0.0993
      10    C3      19.088257   17.891835   22.410436 C.3        1 MOL1        -0.1338
      11    H7      18.186968   17.275510   22.287198 H          1 MOL1         0.0993
      12    H8      19.929262   17.228888   22.166989 H          1 MOL1         0.0993
      13    C4      18.993825   19.056673   21.387602 C.3        1 MOL1        -0.1338
      14    H9      18.844761   18.629114   20.386482 H          1 MOL1         0.0993
      15    H10     18.087285   19.640793   21.597817 H          1 MOL1         0.0993
      16    C5      20.204315   20.021660   21.335054 C.3        1 MOL1        -0.1313
      17    H11     20.307483   20.555321   22.288310 H          1 MOL1         0.0993
      18    H12     19.996612   20.797491   20.584906 H          1 MOL1         0.0993
      19    C6      21.532416   19.322855   20.963811 C.3        1 MOL1        -0.2328
      20    H13     22.341756   20.058730   20.872757 H          1 MOL1         0.1004
      21    H14     21.445588   18.800135   20.002483 H          1 MOL1         0.1004
      22    H15     21.834136   18.591524   21.722914 H          1 MOL1         0.1004
      23    C7      20.107509   20.359370   26.111017 C.3        1 MOL1        -0.0781
      24    H16     20.238538   20.607010   27.166752 H          1 MOL1         0.0978
      25    H17     20.613297   21.103798   25.492307 H          1 MOL1         0.0978
      26    H18     19.043136   20.337260   25.868947 H          1 MOL1         0.0978
@<TRIPOS>BOND
    1     1     2    1
    2     1     3    1
    3     1     4    1
    4     4     5    1
    5     4     6    1
    6     4     7    1
    7     7     8    1
    8     7     9    1
    9     7    10    1
   10    10    11    1
   11    10    12    1
   12    10    13    1
   13    13    14    1
   14    13    15    1
   15    13    16    1
   16    16    17    1
   17    16    18    1
   18    16    19    1
   19    19    20    1
   20    19    21    1
   21    19    22    1
   22     1    23    1
   23    23    24    1
   24    23    25    1
   25    23    26    1
@<TRIPOS>SUBSTRUCTURE
       1 MOL1            1 RESIDUE      1      MOL     
@<SCITEGIC>MOL_PROPERTY
VM2 Rank
SciTegic.value.IntegerValue
148

@<SCITEGIC>MOL_PROPERTY
Conf_Id
SciTegic.value.IntegerValue
839

@<SCITEGIC>MOL_PROPERTY
Probability
SciTegic.value.DoubleValue
0.01

@<SCITEGIC>MOL_PROPERTY
Sum Probability
SciTegic.value.DoubleValue
99.68

@<SCITEGIC>MOL_PROPERTY
Delta G
SciTegic.value.DoubleValue
3.751

@<SCITEGIC>MOL_PROPERTY
G
SciTegic.value.DoubleValue
79.217

@<SCITEGIC>MOL_PROPERTY
E
SciTegic.value.DoubleValue
46.082

@<SCITEGIC>MOL_PROPERTY
-TS
SciTegic.value.DoubleValue
33.135

@<SCITEGIC>MOL_PROPERTY
U+W
SciTegic.value.DoubleValue
24.621

@<SCITEGIC>MOL_PROPERTY
U
SciTegic.value.DoubleValue
74.631

@<SCITEGIC>MOL_PROPERTY
W
SciTegic.value.DoubleValue
-50.010

@<SCITEGIC>MOL_PROPERTY
W(PB)
SciTegic.value.DoubleValue
-52.190

@<SCITEGIC>MOL_PROPERTY
W(SA)
SciTegic.value.DoubleValue
2.180

@<SCITEGIC>MOL_PROPERTY
Valence
SciTegic.value.DoubleValue
4.879

@<SCITEGIC>MOL_PROPERTY
Coulomb
SciTegic.value.DoubleValue
69.648

@<SCITEGIC>MOL_PROPERTY
VdW
SciTegic.value.DoubleValue
0.103

@<SCITEGIC>MOL_PROPERTY
VdW6
SciTegic.value.DoubleValue
-8.910

@<SCITEGIC>MOL_PROPERTY
VdW12
SciTegic.value.DoubleValue
9.013

@<SCITEGIC>MOL_PROPERTY
Bond
SciTegic.value.DoubleValue
0.274

@<SCITEGIC>MOL_PROPERTY
Angle
SciTegic.value.DoubleValue
1.756

@<SCITEGIC>MOL_PROPERTY
Pdih
SciTegic.value.DoubleValue
2.849

@<SCITEGIC>MOL_PROPERTY
Idih
SciTegic.value.DoubleValue
0.000

@<SCITEGIC>MOL_PROPERTY
Tether
SciTegic.value.DoubleValue
0.000

@<TRIPOS>MOLECULE
guest-s12_vm2.mol2 : vm2 ligand conformer 149
          26          25           1
SMALL
USER_CHARGES
 
@<TRIPOS>ATOM
       1    N1      19.729298   18.903228   25.932612 N.4        1 MOL1        -0.4857
       2    H1      20.445042   18.219559   26.221885 H          1 MOL1         0.3650
       3    H2      19.016188   18.871080   26.678169 H          1 MOL1         0.3650
       4    C1      19.094815   18.478479   24.616897 C.3        1 MOL1         0.0209
       5    H3      18.621862   19.351438   24.160978 H          1 MOL1         0.0967
       6    H4      18.303524   17.768872   24.871749 H          1 MOL1         0.0967
       7    C2      20.043675   17.785335   23.611788 C.3        1 MOL1        -0.1378
       8    H5      20.547181   16.948364   24.113000 H          1 MOL1         0.0993
       9    H6      19.434398   17.330501   22.820496 H          1 MOL1         0.0993
      10    C3      21.108122   18.706569   22.961883 C.3        1 MOL1        -0.1338
      11    H7      21.698673   18.116155   22.248931 H          1 MOL1         0.0993
      12    H8      21.825435   19.028900   23.727080 H          1 MOL1         0.0993
      13    C4      20.535138   19.957209   22.241387 C.3        1 MOL1        -0.1338
      14    H9      20.067985   20.623499   22.977997 H          1 MOL1         0.0993
      15    H10     21.370158   20.529064   21.813870 H          1 MOL1         0.0993
      16    C5      19.507912   19.658229   21.119869 C.3        1 MOL1        -0.1313
      17    H11     19.162310   20.612582   20.698591 H          1 MOL1         0.0993
      18    H12     18.615870   19.175357   21.540803 H          1 MOL1         0.0993
      19    C6      20.081469   18.789582   19.977336 C.3        1 MOL1        -0.2328
      20    H13     19.345701   18.681297   19.170029 H          1 MOL1         0.1004
      21    H14     20.338102   17.782071   20.327358 H          1 MOL1         0.1004
      22    H15     20.983930   19.245527   19.550036 H          1 MOL1         0.1004
      23    C7      20.307570   20.311369   25.855229 C.3        1 MOL1        -0.0781
      24    H16     20.712144   20.584175   26.832435 H          1 MOL1         0.0978
      25    H17     21.102500   20.341976   25.109560 H          1 MOL1         0.0978
      26    H18     19.514121   21.008937   25.578581 H          1 MOL1         0.0978
@<TRIPOS>BOND
    1     1     2    1
    2     1     3    1
    3     1     4    1
    4     4     5    1
    5     4     6    1
    6     4     7    1
    7     7     8    1
    8     7     9    1
    9     7    10    1
   10    10    11    1
   11    10    12    1
   12    10    13    1
   13    13    14    1
   14    13    15    1
   15    13    16    1
   16    16    17    1
   17    16    18    1
   18    16    19    1
   19    19    20    1
   20    19    21    1
   21    19    22    1
   22     1    23    1
   23    23    24    1
   24    23    25    1
   25    23    26    1
@<TRIPOS>SUBSTRUCTURE
       1 MOL1            1 RESIDUE      1      MOL     
@<SCITEGIC>MOL_PROPERTY
VM2 Rank
SciTegic.value.IntegerValue
149

@<SCITEGIC>MOL_PROPERTY
Conf_Id
SciTegic.value.IntegerValue
543

@<SCITEGIC>MOL_PROPERTY
Probability
SciTegic.value.DoubleValue
0.01

@<SCITEGIC>MOL_PROPERTY
Sum Probability
SciTegic.value.DoubleValue
99.69

@<SCITEGIC>MOL_PROPERTY
Delta G
SciTegic.value.DoubleValue
3.754

@<SCITEGIC>MOL_PROPERTY
G
SciTegic.value.DoubleValue
79.220

@<SCITEGIC>MOL_PROPERTY
E
SciTegic.value.DoubleValue
45.809

@<SCITEGIC>MOL_PROPERTY
-TS
SciTegic.value.DoubleValue
33.411

@<SCITEGIC>MOL_PROPERTY
U+W
SciTegic.value.DoubleValue
24.347

@<SCITEGIC>MOL_PROPERTY
U
SciTegic.value.DoubleValue
74.535

@<SCITEGIC>MOL_PROPERTY
W
SciTegic.value.DoubleValue
-50.187

@<SCITEGIC>MOL_PROPERTY
W(PB)
SciTegic.value.DoubleValue
-52.346

@<SCITEGIC>MOL_PROPERTY
W(SA)
SciTegic.value.DoubleValue
2.159

@<SCITEGIC>MOL_PROPERTY
Valence
SciTegic.value.DoubleValue
4.948

@<SCITEGIC>MOL_PROPERTY
Coulomb
SciTegic.value.DoubleValue
69.618

@<SCITEGIC>MOL_PROPERTY
VdW
SciTegic.value.DoubleValue
-0.032

@<SCITEGIC>MOL_PROPERTY
VdW6
SciTegic.value.DoubleValue
-9.810

@<SCITEGIC>MOL_PROPERTY
VdW12
SciTegic.value.DoubleValue
9.778

@<SCITEGIC>MOL_PROPERTY
Bond
SciTegic.value.DoubleValue
0.300

@<SCITEGIC>MOL_PROPERTY
Angle
SciTegic.value.DoubleValue
1.880

@<SCITEGIC>MOL_PROPERTY
Pdih
SciTegic.value.DoubleValue
2.768

@<SCITEGIC>MOL_PROPERTY
Idih
SciTegic.value.DoubleValue
0.000

@<SCITEGIC>MOL_PROPERTY
Tether
SciTegic.value.DoubleValue
0.000

@<TRIPOS>MOLECULE
guest-s12_vm2.mol2 : vm2 ligand conformer 150
          26          25           1
SMALL
USER_CHARGES
 
@<TRIPOS>ATOM
       1    N1      20.240792   19.898496   25.511920 N.4        1 MOL1        -0.4857
       2    H1      20.348716   20.477675   24.666738 H          1 MOL1         0.3650
       3    H2      20.743526   20.410375   26.254239 H          1 MOL1         0.3650
       4    C1      20.893739   18.543600   25.298257 C.3        1 MOL1         0.0209
       5    H3      20.755922   17.970313   26.218476 H          1 MOL1         0.0967
       6    H4      21.965618   18.715415   25.171476 H          1 MOL1         0.0967
       7    C2      20.375851   17.712562   24.100558 C.3        1 MOL1        -0.1378
       8    H5      20.877835   16.737062   24.146579 H          1 MOL1         0.0993
       9    H6      19.304825   17.499233   24.210637 H          1 MOL1         0.0993
      10    C3      20.668125   18.337065   22.711600 C.3        1 MOL1        -0.1338
      11    H7      20.729883   17.518147   21.983077 H          1 MOL1         0.0993
      12    H8      21.657170   18.815548   22.717873 H          1 MOL1         0.0993
      13    C4      19.585974   19.340347   22.234987 C.3        1 MOL1        -0.1338
      14    H9      18.616132   18.828955   22.163610 H          1 MOL1         0.0993
      15    H10     19.456125   20.136128   22.976030 H          1 MOL1         0.0993
      16    C5      19.917870   20.002957   20.875701 C.3        1 MOL1        -0.1313
      17    H11     20.879737   20.530186   20.943858 H          1 MOL1         0.0993
      18    H12     19.161198   20.771697   20.664949 H          1 MOL1         0.0993
      19    C6      19.954258   19.006022   19.694824 C.3        1 MOL1        -0.2328
      20    H13     20.095281   19.539850   18.746109 H          1 MOL1         0.1004
      21    H14     19.015517   18.441310   19.625205 H          1 MOL1         0.1004
      22    H15     20.779924   18.290805   19.795116 H          1 MOL1         0.1004
      23    C7      18.771390   19.748950   25.889153 C.3        1 MOL1        -0.0781
      24    H16     18.694120   19.148689   26.798265 H          1 MOL1         0.0978
      25    H17     18.344420   20.739056   26.063509 H          1 MOL1         0.0978
      26    H18     18.237738   19.256833   25.073580 H          1 MOL1         0.0978
@<TRIPOS>BOND
    1     1     2    1
    2     1     3    1
    3     1     4    1
    4     4     5    1
    5     4     6    1
    6     4     7    1
    7     7     8    1
    8     7     9    1
    9     7    10    1
   10    10    11    1
   11    10    12    1
   12    10    13    1
   13    13    14    1
   14    13    15    1
   15    13    16    1
   16    16    17    1
   17    16    18    1
   18    16    19    1
   19    19    20    1
   20    19    21    1
   21    19    22    1
   22     1    23    1
   23    23    24    1
   24    23    25    1
   25    23    26    1
@<TRIPOS>SUBSTRUCTURE
       1 MOL1            1 RESIDUE      1      MOL     
@<SCITEGIC>MOL_PROPERTY
VM2 Rank
SciTegic.value.IntegerValue
150

@<SCITEGIC>MOL_PROPERTY
Conf_Id
SciTegic.value.IntegerValue
527

@<SCITEGIC>MOL_PROPERTY
Probability
SciTegic.value.DoubleValue
0.01

@<SCITEGIC>MOL_PROPERTY
Sum Probability
SciTegic.value.DoubleValue
99.70

@<SCITEGIC>MOL_PROPERTY
Delta G
SciTegic.value.DoubleValue
3.761

@<SCITEGIC>MOL_PROPERTY
G
SciTegic.value.DoubleValue
79.227

@<SCITEGIC>MOL_PROPERTY
E
SciTegic.value.DoubleValue
46.549

@<SCITEGIC>MOL_PROPERTY
-TS
SciTegic.value.DoubleValue
32.678

@<SCITEGIC>MOL_PROPERTY
U+W
SciTegic.value.DoubleValue
25.087

@<SCITEGIC>MOL_PROPERTY
U
SciTegic.value.DoubleValue
75.034

@<SCITEGIC>MOL_PROPERTY
W
SciTegic.value.DoubleValue
-49.946

@<SCITEGIC>MOL_PROPERTY
W(PB)
SciTegic.value.DoubleValue
-52.157

@<SCITEGIC>MOL_PROPERTY
W(SA)
SciTegic.value.DoubleValue
2.211

@<SCITEGIC>MOL_PROPERTY
Valence
SciTegic.value.DoubleValue
4.542

@<SCITEGIC>MOL_PROPERTY
Coulomb
SciTegic.value.DoubleValue
70.170

@<SCITEGIC>MOL_PROPERTY
VdW
SciTegic.value.DoubleValue
0.321

@<SCITEGIC>MOL_PROPERTY
VdW6
SciTegic.value.DoubleValue
-8.485

@<SCITEGIC>MOL_PROPERTY
VdW12
SciTegic.value.DoubleValue
8.807

@<SCITEGIC>MOL_PROPERTY
Bond
SciTegic.value.DoubleValue
0.270

@<SCITEGIC>MOL_PROPERTY
Angle
SciTegic.value.DoubleValue
1.462

@<SCITEGIC>MOL_PROPERTY
Pdih
SciTegic.value.DoubleValue
2.810

@<SCITEGIC>MOL_PROPERTY
Idih
SciTegic.value.DoubleValue
0.000

@<SCITEGIC>MOL_PROPERTY
Tether
SciTegic.value.DoubleValue
0.000

@<TRIPOS>MOLECULE
guest-s12_vm2.mol2 : vm2 ligand conformer 151
          26          25           1
SMALL
USER_CHARGES
 
@<TRIPOS>ATOM
       1    N1      19.241098   18.835143   25.789590 N.4        1 MOL1        -0.4857
       2    H1      19.784725   18.216148   26.410597 H          1 MOL1         0.3650
       3    H2      18.252965   18.625441   26.002641 H          1 MOL1         0.3650
       4    C1      19.529596   18.505795   24.334967 C.3        1 MOL1         0.0209
       5    H3      18.972584   19.213052   23.718794 H          1 MOL1         0.0967
       6    H4      19.131477   17.506131   24.143468 H          1 MOL1         0.0967
       7    C2      21.027390   18.525741   23.960393 C.3        1 MOL1        -0.1378
       8    H5      21.463165   19.513216   24.158941 H          1 MOL1         0.0993
       9    H6      21.550799   17.819040   24.617818 H          1 MOL1         0.0993
      10    C3      21.294139   18.119915   22.488525 C.3        1 MOL1        -0.1338
      11    H7      20.625508   17.300843   22.191692 H          1 MOL1         0.0993
      12    H8      22.308732   17.701713   22.433096 H          1 MOL1         0.0993
      13    C4      21.219790   19.286797   21.466365 C.3        1 MOL1        -0.1338
      14    H9      21.970913   20.042290   21.735152 H          1 MOL1         0.0993
      15    H10     21.522617   18.905937   20.481220 H          1 MOL1         0.0993
      16    C5      19.844360   19.984455   21.322445 C.3        1 MOL1        -0.1313
      17    H11     19.941054   20.791813   20.583121 H          1 MOL1         0.0993
      18    H12     19.567975   20.478795   22.262326 H          1 MOL1         0.0993
      19    C6      18.716326   19.031759   20.864291 C.3        1 MOL1        -0.2328
      20    H13     18.975054   18.544903   19.915103 H          1 MOL1         0.1004
      21    H14     17.782064   19.587375   20.711711 H          1 MOL1         0.1004
      22    H15     18.518168   18.248636   21.605620 H          1 MOL1         0.1004
      23    C7      19.535301   20.300395   26.090425 C.3        1 MOL1        -0.0781
      24    H16     18.932286   20.929822   25.432404 H          1 MOL1         0.0978
      25    H17     19.282943   20.508532   27.132570 H          1 MOL1         0.0978
      26    H18     20.595904   20.498387   25.923405 H          1 MOL1         0.0978
@<TRIPOS>BOND
    1     1     2    1
    2     1     3    1
    3     1     4    1
    4     4     5    1
    5     4     6    1
    6     4     7    1
    7     7     8    1
    8     7     9    1
    9     7    10    1
   10    10    11    1
   11    10    12    1
   12    10    13    1
   13    13    14    1
   14    13    15    1
   15    13    16    1
   16    16    17    1
   17    16    18    1
   18    16    19    1
   19    19    20    1
   20    19    21    1
   21    19    22    1
   22     1    23    1
   23    23    24    1
   24    23    25    1
   25    23    26    1
@<TRIPOS>SUBSTRUCTURE
       1 MOL1            1 RESIDUE      1      MOL     
@<SCITEGIC>MOL_PROPERTY
VM2 Rank
SciTegic.value.IntegerValue
151

@<SCITEGIC>MOL_PROPERTY
Conf_Id
SciTegic.value.IntegerValue
1584

@<SCITEGIC>MOL_PROPERTY
Probability
SciTegic.value.DoubleValue
0.01

@<SCITEGIC>MOL_PROPERTY
Sum Probability
SciTegic.value.DoubleValue
99.72

@<SCITEGIC>MOL_PROPERTY
Delta G
SciTegic.value.DoubleValue
3.788

@<SCITEGIC>MOL_PROPERTY
G
SciTegic.value.DoubleValue
79.254

@<SCITEGIC>MOL_PROPERTY
E
SciTegic.value.DoubleValue
46.119

@<SCITEGIC>MOL_PROPERTY
-TS
SciTegic.value.DoubleValue
33.135

@<SCITEGIC>MOL_PROPERTY
U+W
SciTegic.value.DoubleValue
24.657

@<SCITEGIC>MOL_PROPERTY
U
SciTegic.value.DoubleValue
74.631

@<SCITEGIC>MOL_PROPERTY
W
SciTegic.value.DoubleValue
-49.974

@<SCITEGIC>MOL_PROPERTY
W(PB)
SciTegic.value.DoubleValue
-52.194

@<SCITEGIC>MOL_PROPERTY
W(SA)
SciTegic.value.DoubleValue
2.220

@<SCITEGIC>MOL_PROPERTY
Valence
SciTegic.value.DoubleValue
4.880

@<SCITEGIC>MOL_PROPERTY
Coulomb
SciTegic.value.DoubleValue
69.648

@<SCITEGIC>MOL_PROPERTY
VdW
SciTegic.value.DoubleValue
0.103

@<SCITEGIC>MOL_PROPERTY
VdW6
SciTegic.value.DoubleValue
-8.910

@<SCITEGIC>MOL_PROPERTY
VdW12
SciTegic.value.DoubleValue
9.013

@<SCITEGIC>MOL_PROPERTY
Bond
SciTegic.value.DoubleValue
0.274

@<SCITEGIC>MOL_PROPERTY
Angle
SciTegic.value.DoubleValue
1.756

@<SCITEGIC>MOL_PROPERTY
Pdih
SciTegic.value.DoubleValue
2.850

@<SCITEGIC>MOL_PROPERTY
Idih
SciTegic.value.DoubleValue
0.000

@<SCITEGIC>MOL_PROPERTY
Tether
SciTegic.value.DoubleValue
0.000

@<TRIPOS>MOLECULE
guest-s12_vm2.mol2 : vm2 ligand conformer 152
          26          25           1
SMALL
USER_CHARGES
 
@<TRIPOS>ATOM
       1    N1      20.285688   19.128957   25.933025 N.4        1 MOL1        -0.4857
       2    H1      20.970982   19.821193   25.594873 H          1 MOL1         0.3650
       3    H2      20.827935   18.271120   26.119422 H          1 MOL1         0.3650
       4    C1      19.242004   18.864687   24.864963 C.3        1 MOL1         0.0209
       5    H3      18.697046   19.795409   24.688296 H          1 MOL1         0.0967
       6    H4      18.539863   18.129110   25.265634 H          1 MOL1         0.0967
       7    C2      19.823354   18.344246   23.535618 C.3        1 MOL1        -0.1378
       8    H5      20.374810   17.412541   23.718891 H          1 MOL1         0.0993
       9    H6      18.988258   18.081503   22.876693 H          1 MOL1         0.0993
      10    C3      20.748973   19.377241   22.843392 C.3        1 MOL1        -0.1338
      11    H7      21.616724   19.558523   23.491522 H          1 MOL1         0.0993
      12    H8      20.236160   20.343938   22.743451 H          1 MOL1         0.0993
      13    C4      21.269688   18.906774   21.459975 C.3        1 MOL1        -0.1338
      14    H9      22.297770   19.275077   21.337744 H          1 MOL1         0.0993
      15    H10     21.343599   17.810877   21.432254 H          1 MOL1         0.0993
      16    C5      20.445874   19.416513   20.249578 C.3        1 MOL1        -0.1313
      17    H11     20.942387   19.086451   19.326329 H          1 MOL1         0.0993
      18    H12     20.464401   20.515145   20.227888 H          1 MOL1         0.0993
      19    C6      18.980686   18.928641   20.224938 C.3        1 MOL1        -0.2328
      20    H13     18.494814   19.221983   19.285381 H          1 MOL1         0.1004
      21    H14     18.399730   19.368918   21.044626 H          1 MOL1         0.1004
      22    H15     18.925478   17.835226   20.303742 H          1 MOL1         0.1004
      23    C7      19.611733   19.622940   27.205511 C.3        1 MOL1        -0.0781
      24    H16     19.071255   20.547278   26.990061 H          1 MOL1         0.0978
      25    H17     18.914813   18.861100   27.561647 H          1 MOL1         0.0978
      26    H18     20.373904   19.809708   27.965334 H          1 MOL1         0.0978
@<TRIPOS>BOND
    1     1     2    1
    2     1     3    1
    3     1     4    1
    4     4     5    1
    5     4     6    1
    6     4     7    1
    7     7     8    1
    8     7     9    1
    9     7    10    1
   10    10    11    1
   11    10    12    1
   12    10    13    1
   13    13    14    1
   14    13    15    1
   15    13    16    1
   16    16    17    1
   17    16    18    1
   18    16    19    1
   19    19    20    1
   20    19    21    1
   21    19    22    1
   22     1    23    1
   23    23    24    1
   24    23    25    1
   25    23    26    1
@<TRIPOS>SUBSTRUCTURE
       1 MOL1            1 RESIDUE      1      MOL     
@<SCITEGIC>MOL_PROPERTY
VM2 Rank
SciTegic.value.IntegerValue
152

@<SCITEGIC>MOL_PROPERTY
Conf_Id
SciTegic.value.IntegerValue
536

@<SCITEGIC>MOL_PROPERTY
Probability
SciTegic.value.DoubleValue
0.01

@<SCITEGIC>MOL_PROPERTY
Sum Probability
SciTegic.value.DoubleValue
99.73

@<SCITEGIC>MOL_PROPERTY
Delta G
SciTegic.value.DoubleValue
3.795

@<SCITEGIC>MOL_PROPERTY
G
SciTegic.value.DoubleValue
79.261

@<SCITEGIC>MOL_PROPERTY
E
SciTegic.value.DoubleValue
46.642

@<SCITEGIC>MOL_PROPERTY
-TS
SciTegic.value.DoubleValue
32.618

@<SCITEGIC>MOL_PROPERTY
U+W
SciTegic.value.DoubleValue
25.181

@<SCITEGIC>MOL_PROPERTY
U
SciTegic.value.DoubleValue
74.517

@<SCITEGIC>MOL_PROPERTY
W
SciTegic.value.DoubleValue
-49.336

@<SCITEGIC>MOL_PROPERTY
W(PB)
SciTegic.value.DoubleValue
-51.570

@<SCITEGIC>MOL_PROPERTY
W(SA)
SciTegic.value.DoubleValue
2.234

@<SCITEGIC>MOL_PROPERTY
Valence
SciTegic.value.DoubleValue
4.842

@<SCITEGIC>MOL_PROPERTY
Coulomb
SciTegic.value.DoubleValue
69.333

@<SCITEGIC>MOL_PROPERTY
VdW
SciTegic.value.DoubleValue
0.342

@<SCITEGIC>MOL_PROPERTY
VdW6
SciTegic.value.DoubleValue
-7.369

@<SCITEGIC>MOL_PROPERTY
VdW12
SciTegic.value.DoubleValue
7.711

@<SCITEGIC>MOL_PROPERTY
Bond
SciTegic.value.DoubleValue
0.232

@<SCITEGIC>MOL_PROPERTY
Angle
SciTegic.value.DoubleValue
1.153

@<SCITEGIC>MOL_PROPERTY
Pdih
SciTegic.value.DoubleValue
3.457

@<SCITEGIC>MOL_PROPERTY
Idih
SciTegic.value.DoubleValue
0.000

@<SCITEGIC>MOL_PROPERTY
Tether
SciTegic.value.DoubleValue
0.000

@<TRIPOS>MOLECULE
guest-s12_vm2.mol2 : vm2 ligand conformer 153
          26          25           1
SMALL
USER_CHARGES
 
@<TRIPOS>ATOM
       1    N1      20.517379   19.386087   25.725182 N.4        1 MOL1        -0.4857
       2    H1      20.336232   20.347069   25.398185 H          1 MOL1         0.3650
       3    H2      21.505541   19.197399   25.496066 H          1 MOL1         0.3650
       4    C1      19.616476   18.409379   24.994290 C.3        1 MOL1         0.0209
       5    H3      18.581652   18.645983   25.254265 H          1 MOL1         0.0967
       6    H4      19.842125   17.407899   25.369419 H          1 MOL1         0.0967
       7    C2      19.784278   18.431559   23.462287 C.3        1 MOL1        -0.1378
       8    H5      20.825886   18.192499   23.214420 H          1 MOL1         0.0993
       9    H6      19.161108   17.636169   23.032595 H          1 MOL1         0.0993
      10    C3      19.385370   19.791484   22.839962 C.3        1 MOL1        -0.1338
      11    H7      20.088272   20.569998   23.165440 H          1 MOL1         0.0993
      12    H8      18.400368   20.085176   23.228857 H          1 MOL1         0.0993
      13    C4      19.313549   19.788760   21.290876 C.3        1 MOL1        -0.1338
      14    H9      18.540133   19.087365   20.948695 H          1 MOL1         0.0993
      15    H10     18.969644   20.783536   20.975165 H          1 MOL1         0.0993
      16    C5      20.658304   19.495546   20.576355 C.3        1 MOL1        -0.1313
      17    H11     21.501017   19.844549   21.189230 H          1 MOL1         0.0993
      18    H12     20.696195   20.084043   19.648862 H          1 MOL1         0.0993
      19    C6      20.845898   18.006568   20.201828 C.3        1 MOL1        -0.2328
      20    H13     20.042315   17.665615   19.536225 H          1 MOL1         0.1004
      21    H14     20.852655   17.355910   21.082910 H          1 MOL1         0.1004
      22    H15     21.797747   17.860694   19.674941 H          1 MOL1         0.1004
      23    C7      20.286746   19.280618   27.226220 C.3        1 MOL1        -0.0781
      24    H16     20.514642   18.263948   27.553900 H          1 MOL1         0.0978
      25    H17     20.940583   19.988992   27.739854 H          1 MOL1         0.0978
      26    H18     19.243043   19.515291   27.446558 H          1 MOL1         0.0978
@<TRIPOS>BOND
    1     1     2    1
    2     1     3    1
    3     1     4    1
    4     4     5    1
    5     4     6    1
    6     4     7    1
    7     7     8    1
    8     7     9    1
    9     7    10    1
   10    10    11    1
   11    10    12    1
   12    10    13    1
   13    13    14    1
   14    13    15    1
   15    13    16    1
   16    16    17    1
   17    16    18    1
   18    16    19    1
   19    19    20    1
   20    19    21    1
   21    19    22    1
   22     1    23    1
   23    23    24    1
   24    23    25    1
   25    23    26    1
@<TRIPOS>SUBSTRUCTURE
       1 MOL1            1 RESIDUE      1      MOL     
@<SCITEGIC>MOL_PROPERTY
VM2 Rank
SciTegic.value.IntegerValue
153

@<SCITEGIC>MOL_PROPERTY
Conf_Id
SciTegic.value.IntegerValue
1865

@<SCITEGIC>MOL_PROPERTY
Probability
SciTegic.value.DoubleValue
0.01

@<SCITEGIC>MOL_PROPERTY
Sum Probability
SciTegic.value.DoubleValue
99.74

@<SCITEGIC>MOL_PROPERTY
Delta G
SciTegic.value.DoubleValue
3.830

@<SCITEGIC>MOL_PROPERTY
G
SciTegic.value.DoubleValue
79.296

@<SCITEGIC>MOL_PROPERTY
E
SciTegic.value.DoubleValue
46.710

@<SCITEGIC>MOL_PROPERTY
-TS
SciTegic.value.DoubleValue
32.586

@<SCITEGIC>MOL_PROPERTY
U+W
SciTegic.value.DoubleValue
25.248

@<SCITEGIC>MOL_PROPERTY
U
SciTegic.value.DoubleValue
74.608

@<SCITEGIC>MOL_PROPERTY
W
SciTegic.value.DoubleValue
-49.358

@<SCITEGIC>MOL_PROPERTY
W(PB)
SciTegic.value.DoubleValue
-51.612

@<SCITEGIC>MOL_PROPERTY
W(SA)
SciTegic.value.DoubleValue
2.254

@<SCITEGIC>MOL_PROPERTY
Valence
SciTegic.value.DoubleValue
4.823

@<SCITEGIC>MOL_PROPERTY
Coulomb
SciTegic.value.DoubleValue
69.470

@<SCITEGIC>MOL_PROPERTY
VdW
SciTegic.value.DoubleValue
0.316

@<SCITEGIC>MOL_PROPERTY
VdW6
SciTegic.value.DoubleValue
-7.375

@<SCITEGIC>MOL_PROPERTY
VdW12
SciTegic.value.DoubleValue
7.690

@<SCITEGIC>MOL_PROPERTY
Bond
SciTegic.value.DoubleValue
0.227

@<SCITEGIC>MOL_PROPERTY
Angle
SciTegic.value.DoubleValue
1.210

@<SCITEGIC>MOL_PROPERTY
Pdih
SciTegic.value.DoubleValue
3.386

@<SCITEGIC>MOL_PROPERTY
Idih
SciTegic.value.DoubleValue
0.000

@<SCITEGIC>MOL_PROPERTY
Tether
SciTegic.value.DoubleValue
0.000

@<TRIPOS>MOLECULE
guest-s12_vm2.mol2 : vm2 ligand conformer 154
          26          25           1
SMALL
USER_CHARGES
 
@<TRIPOS>ATOM
       1    N1      19.625488   19.061312   25.909652 N.4        1 MOL1        -0.4857
       2    H1      19.256620   18.110087   26.063818 H          1 MOL1         0.3650
       3    H2      18.839530   19.602730   25.519389 H          1 MOL1         0.3650
       4    C1      20.773218   19.021635   24.919189 C.3        1 MOL1         0.0209
       5    H3      21.580034   18.440746   25.373315 H          1 MOL1         0.0967
       6    H4      21.129287   20.044709   24.774395 H          1 MOL1         0.0967
       7    C2      20.403908   18.403699   23.556195 C.3        1 MOL1        -0.1378
       8    H5      21.318956   18.320355   22.959251 H          1 MOL1         0.0993
       9    H6      20.041253   17.378286   23.707116 H          1 MOL1         0.0993
      10    C3      19.338938   19.232604   22.793452 C.3        1 MOL1        -0.1338
      11    H7      19.650872   20.283876   22.722786 H          1 MOL1         0.0993
      12    H8      18.409226   19.229543   23.377879 H          1 MOL1         0.0993
      13    C4      19.022633   18.676375   21.380340 C.3        1 MOL1        -0.1338
      14    H9      19.174529   17.588476   21.355314 H          1 MOL1         0.0993
      15    H10     17.952381   18.829513   21.183748 H          1 MOL1         0.0993
      16    C5      19.808749   19.351291   20.227052 C.3        1 MOL1        -0.1313
      17    H11     19.569578   20.423514   20.196395 H          1 MOL1         0.0993
      18    H12     19.455286   18.934251   19.273639 H          1 MOL1         0.0993
      19    C6      21.340452   19.170580   20.308523 C.3        1 MOL1        -0.2328
      20    H13     21.821371   19.563183   19.403279 H          1 MOL1         0.1004
      21    H14     21.610404   18.110477   20.398650 H          1 MOL1         0.1004
      22    H15     21.761311   19.713386   21.163789 H          1 MOL1         0.1004
      23    C7      20.094613   19.672504   27.222598 C.3        1 MOL1        -0.0781
      24    H16     20.450227   20.688732   27.038873 H          1 MOL1         0.0978
      25    H17     19.259159   19.695439   27.925882 H          1 MOL1         0.0978
      26    H18     20.904833   19.065210   27.632072 H          1 MOL1         0.0978
@<TRIPOS>BOND
    1     1     2    1
    2     1     3    1
    3     1     4    1
    4     4     5    1
    5     4     6    1
    6     4     7    1
    7     7     8    1
    8     7     9    1
    9     7    10    1
   10    10    11    1
   11    10    12    1
   12    10    13    1
   13    13    14    1
   14    13    15    1
   15    13    16    1
   16    16    17    1
   17    16    18    1
   18    16    19    1
   19    19    20    1
   20    19    21    1
   21    19    22    1
   22     1    23    1
   23    23    24    1
   24    23    25    1
   25    23    26    1
@<TRIPOS>SUBSTRUCTURE
       1 MOL1            1 RESIDUE      1      MOL     
@<SCITEGIC>MOL_PROPERTY
VM2 Rank
SciTegic.value.IntegerValue
154

@<SCITEGIC>MOL_PROPERTY
Conf_Id
SciTegic.value.IntegerValue
711

@<SCITEGIC>MOL_PROPERTY
Probability
SciTegic.value.DoubleValue
0.01

@<SCITEGIC>MOL_PROPERTY
Sum Probability
SciTegic.value.DoubleValue
99.75

@<SCITEGIC>MOL_PROPERTY
Delta G
SciTegic.value.DoubleValue
3.837

@<SCITEGIC>MOL_PROPERTY
G
SciTegic.value.DoubleValue
79.303

@<SCITEGIC>MOL_PROPERTY
E
SciTegic.value.DoubleValue
46.685

@<SCITEGIC>MOL_PROPERTY
-TS
SciTegic.value.DoubleValue
32.618

@<SCITEGIC>MOL_PROPERTY
U+W
SciTegic.value.DoubleValue
25.223

@<SCITEGIC>MOL_PROPERTY
U
SciTegic.value.DoubleValue
74.516

@<SCITEGIC>MOL_PROPERTY
W
SciTegic.value.DoubleValue
-49.294

@<SCITEGIC>MOL_PROPERTY
W(PB)
SciTegic.value.DoubleValue
-51.561

@<SCITEGIC>MOL_PROPERTY
W(SA)
SciTegic.value.DoubleValue
2.267

@<SCITEGIC>MOL_PROPERTY
Valence
SciTegic.value.DoubleValue
4.842

@<SCITEGIC>MOL_PROPERTY
Coulomb
SciTegic.value.DoubleValue
69.332

@<SCITEGIC>MOL_PROPERTY
VdW
SciTegic.value.DoubleValue
0.342

@<SCITEGIC>MOL_PROPERTY
VdW6
SciTegic.value.DoubleValue
-7.369

@<SCITEGIC>MOL_PROPERTY
VdW12
SciTegic.value.DoubleValue
7.710

@<SCITEGIC>MOL_PROPERTY
Bond
SciTegic.value.DoubleValue
0.232

@<SCITEGIC>MOL_PROPERTY
Angle
SciTegic.value.DoubleValue
1.153

@<SCITEGIC>MOL_PROPERTY
Pdih
SciTegic.value.DoubleValue
3.457

@<SCITEGIC>MOL_PROPERTY
Idih
SciTegic.value.DoubleValue
0.000

@<SCITEGIC>MOL_PROPERTY
Tether
SciTegic.value.DoubleValue
0.000

@<TRIPOS>MOLECULE
guest-s12_vm2.mol2 : vm2 ligand conformer 155
          26          25           1
SMALL
USER_CHARGES
 
@<TRIPOS>ATOM
       1    N1      19.376421   19.698464   25.471770 N.4        1 MOL1        -0.4857
       2    H1      18.848983   19.849682   24.600639 H          1 MOL1         0.3650
       3    H2      19.192491   20.534635   26.048772 H          1 MOL1         0.3650
       4    C1      20.865408   19.603482   25.176906 C.3        1 MOL1         0.0209
       5    H3      21.359840   19.366166   26.122252 H          1 MOL1         0.0967
       6    H4      21.209182   20.591307   24.859866 H          1 MOL1         0.0967
       7    C2      21.277632   18.558889   24.113638 C.3        1 MOL1        -0.1378
       8    H5      22.341246   18.334214   24.268104 H          1 MOL1         0.0993
       9    H6      20.748348   17.611854   24.277569 H          1 MOL1         0.0993
      10    C3      21.103097   19.024172   22.644975 C.3        1 MOL1        -0.1338
      11    H7      21.551149   18.257818   22.000068 H          1 MOL1         0.0993
      12    H8      21.685010   19.941322   22.479417 H          1 MOL1         0.0993
      13    C4      19.632262   19.260839   22.218384 C.3        1 MOL1        -0.1338
      14    H9      19.022931   18.381300   22.468462 H          1 MOL1         0.0993
      15    H10     19.222563   20.104521   22.786034 H          1 MOL1         0.0993
      16    C5      19.471622   19.589253   20.713818 C.3        1 MOL1        -0.1313
      17    H11     20.097633   20.453745   20.451825 H          1 MOL1         0.0993
      18    H12     18.432473   19.896995   20.531027 H          1 MOL1         0.0993
      19    C6      19.804657   18.401471   19.781812 C.3        1 MOL1        -0.2328
      20    H13     20.867430   18.134634   19.827875 H          1 MOL1         0.1004
      21    H14     19.575573   18.656620   18.739050 H          1 MOL1         0.1004
      22    H15     19.215056   17.514140   20.046368 H          1 MOL1         0.1004
      23    C7      18.876902   18.453431   26.195697 C.3        1 MOL1        -0.0781
      24    H16     17.815949   18.575265   26.424990 H          1 MOL1         0.0978
      25    H17     19.015414   17.580791   25.554581 H          1 MOL1         0.0978
      26    H18     19.441627   18.326519   27.121854 H          1 MOL1         0.0978
@<TRIPOS>BOND
    1     1     2    1
    2     1     3    1
    3     1     4    1
    4     4     5    1
    5     4     6    1
    6     4     7    1
    7     7     8    1
    8     7     9    1
    9     7    10    1
   10    10    11    1
   11    10    12    1
   12    10    13    1
   13    13    14    1
   14    13    15    1
   15    13    16    1
   16    16    17    1
   17    16    18    1
   18    16    19    1
   19    19    20    1
   20    19    21    1
   21    19    22    1
   22     1    23    1
   23    23    24    1
   24    23    25    1
   25    23    26    1
@<TRIPOS>SUBSTRUCTURE
       1 MOL1            1 RESIDUE      1      MOL     
@<SCITEGIC>MOL_PROPERTY
VM2 Rank
SciTegic.value.IntegerValue
155

@<SCITEGIC>MOL_PROPERTY
Conf_Id
SciTegic.value.IntegerValue
1316

@<SCITEGIC>MOL_PROPERTY
Probability
SciTegic.value.DoubleValue
0.01

@<SCITEGIC>MOL_PROPERTY
Sum Probability
SciTegic.value.DoubleValue
99.76

@<SCITEGIC>MOL_PROPERTY
Delta G
SciTegic.value.DoubleValue
3.850

@<SCITEGIC>MOL_PROPERTY
G
SciTegic.value.DoubleValue
79.316

@<SCITEGIC>MOL_PROPERTY
E
SciTegic.value.DoubleValue
46.927

@<SCITEGIC>MOL_PROPERTY
-TS
SciTegic.value.DoubleValue
32.389

@<SCITEGIC>MOL_PROPERTY
U+W
SciTegic.value.DoubleValue
25.465

@<SCITEGIC>MOL_PROPERTY
U
SciTegic.value.DoubleValue
75.175

@<SCITEGIC>MOL_PROPERTY
W
SciTegic.value.DoubleValue
-49.711

@<SCITEGIC>MOL_PROPERTY
W(PB)
SciTegic.value.DoubleValue
-51.956

@<SCITEGIC>MOL_PROPERTY
W(SA)
SciTegic.value.DoubleValue
2.245

@<SCITEGIC>MOL_PROPERTY
Valence
SciTegic.value.DoubleValue
4.303

@<SCITEGIC>MOL_PROPERTY
Coulomb
SciTegic.value.DoubleValue
70.505

@<SCITEGIC>MOL_PROPERTY
VdW
SciTegic.value.DoubleValue
0.368

@<SCITEGIC>MOL_PROPERTY
VdW6
SciTegic.value.DoubleValue
-8.223

@<SCITEGIC>MOL_PROPERTY
VdW12
SciTegic.value.DoubleValue
8.591

@<SCITEGIC>MOL_PROPERTY
Bond
SciTegic.value.DoubleValue
0.267

@<SCITEGIC>MOL_PROPERTY
Angle
SciTegic.value.DoubleValue
1.487

@<SCITEGIC>MOL_PROPERTY
Pdih
SciTegic.value.DoubleValue
2.549

@<SCITEGIC>MOL_PROPERTY
Idih
SciTegic.value.DoubleValue
0.000

@<SCITEGIC>MOL_PROPERTY
Tether
SciTegic.value.DoubleValue
0.000

@<TRIPOS>MOLECULE
guest-s12_vm2.mol2 : vm2 ligand conformer 156
          26          25           1
SMALL
USER_CHARGES
 
@<TRIPOS>ATOM
       1    N1      19.361778   19.268685   25.684149 N.4        1 MOL1        -0.4857
       2    H1      18.450197   18.886952   25.387724 H          1 MOL1         0.3650
       3    H2      19.368666   20.248731   25.363698 H          1 MOL1         0.3650
       4    C1      20.489487   18.498010   25.025275 C.3        1 MOL1         0.0209
       5    H3      20.443799   17.468980   25.390806 H          1 MOL1         0.0967
       6    H4      21.434869   18.935759   25.355514 H          1 MOL1         0.0967
       7    C2      20.428561   18.496919   23.485154 C.3        1 MOL1        -0.1378
       8    H5      21.227309   17.845907   23.105936 H          1 MOL1         0.0993
       9    H6      19.476168   18.055371   23.166539 H          1 MOL1         0.0993
      10    C3      20.588985   19.913629   22.882647 C.3        1 MOL1        -0.1338
      11    H7      21.465282   20.396278   23.337485 H          1 MOL1         0.0993
      12    H8      19.723091   20.532885   23.152540 H          1 MOL1         0.0993
      13    C4      20.768211   19.936380   21.342455 C.3        1 MOL1        -0.1338
      14    H9      20.926758   20.982149   21.044537 H          1 MOL1         0.0993
      15    H10     21.688664   19.406893   21.060276 H          1 MOL1         0.0993
      16    C5      19.563044   19.384379   20.537627 C.3        1 MOL1        -0.1313
      17    H11     19.472775   19.959976   19.605668 H          1 MOL1         0.0993
      18    H12     18.626654   19.552687   21.087563 H          1 MOL1         0.0993
      19    C6      19.704832   17.890795   20.161312 C.3        1 MOL1        -0.2328
      20    H13     20.605042   17.722901   19.555957 H          1 MOL1         0.1004
      21    H14     18.840869   17.560625   19.570159 H          1 MOL1         0.1004
      22    H15     19.767227   17.245691   21.044294 H          1 MOL1         0.1004
      23    C7      19.503104   19.201202   27.198381 C.3        1 MOL1        -0.0781
      24    H16     20.460351   19.639164   27.489593 H          1 MOL1         0.0978
      25    H17     18.685966   19.760220   27.659794 H          1 MOL1         0.0978
      26    H18     19.461635   18.157214   27.516653 H          1 MOL1         0.0978
@<TRIPOS>BOND
    1     1     2    1
    2     1     3    1
    3     1     4    1
    4     4     5    1
    5     4     6    1
    6     4     7    1
    7     7     8    1
    8     7     9    1
    9     7    10    1
   10    10    11    1
   11    10    12    1
   12    10    13    1
   13    13    14    1
   14    13    15    1
   15    13    16    1
   16    16    17    1
   17    16    18    1
   18    16    19    1
   19    19    20    1
   20    19    21    1
   21    19    22    1
   22     1    23    1
   23    23    24    1
   24    23    25    1
   25    23    26    1
@<TRIPOS>SUBSTRUCTURE
       1 MOL1            1 RESIDUE      1      MOL     
@<SCITEGIC>MOL_PROPERTY
VM2 Rank
SciTegic.value.IntegerValue
156

@<SCITEGIC>MOL_PROPERTY
Conf_Id
SciTegic.value.IntegerValue
236

@<SCITEGIC>MOL_PROPERTY
Probability
SciTegic.value.DoubleValue
0.01

@<SCITEGIC>MOL_PROPERTY
Sum Probability
SciTegic.value.DoubleValue
99.77

@<SCITEGIC>MOL_PROPERTY
Delta G
SciTegic.value.DoubleValue
3.876

@<SCITEGIC>MOL_PROPERTY
G
SciTegic.value.DoubleValue
79.342

@<SCITEGIC>MOL_PROPERTY
E
SciTegic.value.DoubleValue
46.756

@<SCITEGIC>MOL_PROPERTY
-TS
SciTegic.value.DoubleValue
32.586

@<SCITEGIC>MOL_PROPERTY
U+W
SciTegic.value.DoubleValue
25.295

@<SCITEGIC>MOL_PROPERTY
U
SciTegic.value.DoubleValue
74.608

@<SCITEGIC>MOL_PROPERTY
W
SciTegic.value.DoubleValue
-49.314

@<SCITEGIC>MOL_PROPERTY
W(PB)
SciTegic.value.DoubleValue
-51.566

@<SCITEGIC>MOL_PROPERTY
W(SA)
SciTegic.value.DoubleValue
2.252

@<SCITEGIC>MOL_PROPERTY
Valence
SciTegic.value.DoubleValue
4.823

@<SCITEGIC>MOL_PROPERTY
Coulomb
SciTegic.value.DoubleValue
69.470

@<SCITEGIC>MOL_PROPERTY
VdW
SciTegic.value.DoubleValue
0.315

@<SCITEGIC>MOL_PROPERTY
VdW6
SciTegic.value.DoubleValue
-7.375

@<SCITEGIC>MOL_PROPERTY
VdW12
SciTegic.value.DoubleValue
7.690

@<SCITEGIC>MOL_PROPERTY
Bond
SciTegic.value.DoubleValue
0.227

@<SCITEGIC>MOL_PROPERTY
Angle
SciTegic.value.DoubleValue
1.209

@<SCITEGIC>MOL_PROPERTY
Pdih
SciTegic.value.DoubleValue
3.386

@<SCITEGIC>MOL_PROPERTY
Idih
SciTegic.value.DoubleValue
0.000

@<SCITEGIC>MOL_PROPERTY
Tether
SciTegic.value.DoubleValue
0.000

@<TRIPOS>MOLECULE
guest-s12_vm2.mol2 : vm2 ligand conformer 157
          26          25           1
SMALL
USER_CHARGES
 
@<TRIPOS>ATOM
       1    N1      19.346831   18.856911   25.448755 N.4        1 MOL1        -0.4857
       2    H1      19.212455   17.854720   25.654631 H          1 MOL1         0.3650
       3    H2      18.771438   19.046440   24.615806 H          1 MOL1         0.3650
       4    C1      20.807909   19.135333   25.150906 C.3        1 MOL1         0.0209
       5    H3      21.370237   18.866974   26.048872 H          1 MOL1         0.0967
       6    H4      20.929674   20.208209   24.982244 H          1 MOL1         0.0967
       7    C2      21.373377   18.349034   23.949396 C.3        1 MOL1        -0.1378
       8    H5      22.460052   18.267754   24.084976 H          1 MOL1         0.0993
       9    H6      20.991581   17.319490   23.959417 H          1 MOL1         0.0993
      10    C3      21.115598   19.007561   22.569592 C.3        1 MOL1        -0.1338
      11    H7      21.645188   18.413941   21.813753 H          1 MOL1         0.0993
      12    H8      21.574035   20.005950   22.550972 H          1 MOL1         0.0993
      13    C4      19.619227   19.121387   22.182933 C.3        1 MOL1        -0.1338
      14    H9      19.133182   18.140028   22.272070 H          1 MOL1         0.0993
      15    H10     19.114073   19.793955   22.886921 H          1 MOL1         0.0993
      16    C5      19.391973   19.681104   20.757318 C.3        1 MOL1        -0.1313
      17    H11     19.891846   20.654503   20.654814 H          1 MOL1         0.0993
      18    H12     18.318137   19.872644   20.622635 H          1 MOL1         0.0993
      19    C6      19.867424   18.729363   19.635531 C.3        1 MOL1        -0.2328
      20    H13     20.957092   18.605133   19.643352 H          1 MOL1         0.1004
      21    H14     19.589910   19.128256   18.651251 H          1 MOL1         0.1004
      22    H15     19.407019   17.738016   19.736699 H          1 MOL1         0.1004
      23    C7      18.885662   19.709306   26.622569 C.3        1 MOL1        -0.0781
      24    H16     17.833702   19.498246   26.827379 H          1 MOL1         0.0978
      25    H17     19.488163   19.466878   27.500720 H          1 MOL1         0.0978
      26    H18     19.007896   20.764834   26.369891 H          1 MOL1         0.0978
@<TRIPOS>BOND
    1     1     2    1
    2     1     3    1
    3     1     4    1
    4     4     5    1
    5     4     6    1
    6     4     7    1
    7     7     8    1
    8     7     9    1
    9     7    10    1
   10    10    11    1
   11    10    12    1
   12    10    13    1
   13    13    14    1
   14    13    15    1
   15    13    16    1
   16    16    17    1
   17    16    18    1
   18    16    19    1
   19    19    20    1
   20    19    21    1
   21    19    22    1
   22     1    23    1
   23    23    24    1
   24    23    25    1
   25    23    26    1
@<TRIPOS>SUBSTRUCTURE
       1 MOL1            1 RESIDUE      1      MOL     
@<SCITEGIC>MOL_PROPERTY
VM2 Rank
SciTegic.value.IntegerValue
157

@<SCITEGIC>MOL_PROPERTY
Conf_Id
SciTegic.value.IntegerValue
1327

@<SCITEGIC>MOL_PROPERTY
Probability
SciTegic.value.DoubleValue
0.01

@<SCITEGIC>MOL_PROPERTY
Sum Probability
SciTegic.value.DoubleValue
99.78

@<SCITEGIC>MOL_PROPERTY
Delta G
SciTegic.value.DoubleValue
3.877

@<SCITEGIC>MOL_PROPERTY
G
SciTegic.value.DoubleValue
79.343

@<SCITEGIC>MOL_PROPERTY
E
SciTegic.value.DoubleValue
46.968

@<SCITEGIC>MOL_PROPERTY
-TS
SciTegic.value.DoubleValue
32.375

@<SCITEGIC>MOL_PROPERTY
U+W
SciTegic.value.DoubleValue
25.506

@<SCITEGIC>MOL_PROPERTY
U
SciTegic.value.DoubleValue
74.712

@<SCITEGIC>MOL_PROPERTY
W
SciTegic.value.DoubleValue
-49.206

@<SCITEGIC>MOL_PROPERTY
W(PB)
SciTegic.value.DoubleValue
-51.496

@<SCITEGIC>MOL_PROPERTY
W(SA)
SciTegic.value.DoubleValue
2.291

@<SCITEGIC>MOL_PROPERTY
Valence
SciTegic.value.DoubleValue
4.001

@<SCITEGIC>MOL_PROPERTY
Coulomb
SciTegic.value.DoubleValue
70.536

@<SCITEGIC>MOL_PROPERTY
VdW
SciTegic.value.DoubleValue
0.175

@<SCITEGIC>MOL_PROPERTY
VdW6
SciTegic.value.DoubleValue
-7.476

@<SCITEGIC>MOL_PROPERTY
VdW12
SciTegic.value.DoubleValue
7.652

@<SCITEGIC>MOL_PROPERTY
Bond
SciTegic.value.DoubleValue
0.220

@<SCITEGIC>MOL_PROPERTY
Angle
SciTegic.value.DoubleValue
1.251

@<SCITEGIC>MOL_PROPERTY
Pdih
SciTegic.value.DoubleValue
2.530

@<SCITEGIC>MOL_PROPERTY
Idih
SciTegic.value.DoubleValue
0.000

@<SCITEGIC>MOL_PROPERTY
Tether
SciTegic.value.DoubleValue
0.000

@<TRIPOS>MOLECULE
guest-s12_vm2.mol2 : vm2 ligand conformer 158
          26          25           1
SMALL
USER_CHARGES
 
@<TRIPOS>ATOM
       1    N1      19.706708   18.742284   25.880505 N.4        1 MOL1        -0.4857
       2    H1      19.741494   17.713400   25.810906 H          1 MOL1         0.3650
       3    H2      18.754233   19.006819   25.587531 H          1 MOL1         0.3650
       4    C1      20.730523   19.363007   24.949489 C.3        1 MOL1         0.0209
       5    H3      21.719737   19.056599   25.299033 H          1 MOL1         0.0967
       6    H4      20.657518   20.449496   25.042511 H          1 MOL1         0.0967
       7    C2      20.563867   18.956108   23.471960 C.3        1 MOL1        -0.1378
       8    H5      21.420909   19.355849   22.916303 H          1 MOL1         0.0993
       9    H6      20.607266   17.862421   23.384774 H          1 MOL1         0.0993
      10    C3      19.251607   19.490792   22.848090 C.3        1 MOL1        -0.1338
      11    H7      19.258938   20.589383   22.871686 H          1 MOL1         0.0993
      12    H8      18.398945   19.178344   23.465008 H          1 MOL1         0.0993
      13    C4      18.990788   19.009319   21.397067 C.3        1 MOL1        -0.1338
      14    H9      18.873310   17.917058   21.376840 H          1 MOL1         0.0993
      15    H10     18.018993   19.415900   21.084269 H          1 MOL1         0.0993
      16    C5      20.054850   19.453632   20.360168 C.3        1 MOL1        -0.1313
      17    H11     20.517521   20.401408   20.668832 H          1 MOL1         0.0993
      18    H12     19.548904   19.661925   19.406940 H          1 MOL1         0.0993
      19    C6      21.141264   18.384189   20.098150 C.3        1 MOL1        -0.2328
      20    H13     21.705946   18.137735   21.003930 H          1 MOL1         0.1004
      21    H14     21.857612   18.740786   19.346755 H          1 MOL1         0.1004
      22    H15     20.694050   17.456985   19.716918 H          1 MOL1         0.1004
      23    C7      19.968393   19.190670   27.311571 C.3        1 MOL1        -0.0781
      24    H16     19.894810   20.279044   27.366042 H          1 MOL1         0.0978
      25    H17     19.224861   18.737129   27.970798 H          1 MOL1         0.0978
      26    H18     20.969457   18.871972   27.610293 H          1 MOL1         0.0978
@<TRIPOS>BOND
    1     1     2    1
    2     1     3    1
    3     1     4    1
    4     4     5    1
    5     4     6    1
    6     4     7    1
    7     7     8    1
    8     7     9    1
    9     7    10    1
   10    10    11    1
   11    10    12    1
   12    10    13    1
   13    13    14    1
   14    13    15    1
   15    13    16    1
   16    16    17    1
   17    16    18    1
   18    16    19    1
   19    19    20    1
   20    19    21    1
   21    19    22    1
   22     1    23    1
   23    23    24    1
   24    23    25    1
   25    23    26    1
@<TRIPOS>SUBSTRUCTURE
       1 MOL1            1 RESIDUE      1      MOL     
@<SCITEGIC>MOL_PROPERTY
VM2 Rank
SciTegic.value.IntegerValue
158

@<SCITEGIC>MOL_PROPERTY
Conf_Id
SciTegic.value.IntegerValue
680

@<SCITEGIC>MOL_PROPERTY
Probability
SciTegic.value.DoubleValue
0.01

@<SCITEGIC>MOL_PROPERTY
Sum Probability
SciTegic.value.DoubleValue
99.79

@<SCITEGIC>MOL_PROPERTY
Delta G
SciTegic.value.DoubleValue
3.878

@<SCITEGIC>MOL_PROPERTY
G
SciTegic.value.DoubleValue
79.344

@<SCITEGIC>MOL_PROPERTY
E
SciTegic.value.DoubleValue
46.765

@<SCITEGIC>MOL_PROPERTY
-TS
SciTegic.value.DoubleValue
32.579

@<SCITEGIC>MOL_PROPERTY
U+W
SciTegic.value.DoubleValue
25.303

@<SCITEGIC>MOL_PROPERTY
U
SciTegic.value.DoubleValue
74.594

@<SCITEGIC>MOL_PROPERTY
W
SciTegic.value.DoubleValue
-49.291

@<SCITEGIC>MOL_PROPERTY
W(PB)
SciTegic.value.DoubleValue
-51.538

@<SCITEGIC>MOL_PROPERTY
W(SA)
SciTegic.value.DoubleValue
2.247

@<SCITEGIC>MOL_PROPERTY
Valence
SciTegic.value.DoubleValue
4.886

@<SCITEGIC>MOL_PROPERTY
Coulomb
SciTegic.value.DoubleValue
69.332

@<SCITEGIC>MOL_PROPERTY
VdW
SciTegic.value.DoubleValue
0.377

@<SCITEGIC>MOL_PROPERTY
VdW6
SciTegic.value.DoubleValue
-7.329

@<SCITEGIC>MOL_PROPERTY
VdW12
SciTegic.value.DoubleValue
7.706

@<SCITEGIC>MOL_PROPERTY
Bond
SciTegic.value.DoubleValue
0.232

@<SCITEGIC>MOL_PROPERTY
Angle
SciTegic.value.DoubleValue
1.250

@<SCITEGIC>MOL_PROPERTY
Pdih
SciTegic.value.DoubleValue
3.404

@<SCITEGIC>MOL_PROPERTY
Idih
SciTegic.value.DoubleValue
0.000

@<SCITEGIC>MOL_PROPERTY
Tether
SciTegic.value.DoubleValue
0.000

@<TRIPOS>MOLECULE
guest-s12_vm2.mol2 : vm2 ligand conformer 159
          26          25           1
SMALL
USER_CHARGES
 
@<TRIPOS>ATOM
       1    N1      20.272630   18.800035   25.900580 N.4        1 MOL1        -0.4857
       2    H1      21.170374   19.253180   25.673131 H          1 MOL1         0.3650
       3    H2      20.450883   17.785773   25.836107 H          1 MOL1         0.3650
       4    C1      19.212498   19.208284   24.895720 C.3        1 MOL1         0.0209
       5    H3      19.058356   20.286505   24.985831 H          1 MOL1         0.0967
       6    H4      18.283326   18.706338   25.177323 H          1 MOL1         0.0967
       7    C2      19.560792   18.853836   23.436439 C.3        1 MOL1        -0.1378
       8    H5      19.744767   17.774468   23.354238 H          1 MOL1         0.0993
       9    H6      18.681888   19.076732   22.819257 H          1 MOL1         0.0993
      10    C3      20.778902   19.646280   22.902239 C.3        1 MOL1        -0.1338
      11    H7      21.631636   19.507612   23.579631 H          1 MOL1         0.0993
      12    H8      20.548822   20.720687   22.917356 H          1 MOL1         0.0993
      13    C4      21.232414   19.237478   21.476576 C.3        1 MOL1        -0.1338
      14    H9      22.122034   19.833491   21.229833 H          1 MOL1         0.0993
      15    H10     21.568378   18.191363   21.472458 H          1 MOL1         0.0993
      16    C5      20.176158   19.466002   20.364415 C.3        1 MOL1        -0.1313
      17    H11     20.695477   19.778590   19.447567 H          1 MOL1         0.0993
      18    H12     19.511785   20.299105   20.633047 H          1 MOL1         0.0993
      19    C6      19.348214   18.201761   20.034479 C.3        1 MOL1        -0.2328
      20    H13     18.629339   18.412288   19.232103 H          1 MOL1         0.1004
      21    H14     18.782467   17.840343   20.900128 H          1 MOL1         0.1004
      22    H15     19.998441   17.386199   19.692266 H          1 MOL1         0.1004
      23    C7      19.826392   19.176324   27.306553 C.3        1 MOL1        -0.0781
      24    H16     19.675115   20.256780   27.358217 H          1 MOL1         0.0978
      25    H17     18.891691   18.660300   27.536741 H          1 MOL1         0.0978
      26    H18     20.598050   18.877290   28.019464 H          1 MOL1         0.0978
@<TRIPOS>BOND
    1     1     2    1
    2     1     3    1
    3     1     4    1
    4     4     5    1
    5     4     6    1
    6     4     7    1
    7     7     8    1
    8     7     9    1
    9     7    10    1
   10    10    11    1
   11    10    12    1
   12    10    13    1
   13    13    14    1
   14    13    15    1
   15    13    16    1
   16    16    17    1
   17    16    18    1
   18    16    19    1
   19    19    20    1
   20    19    21    1
   21    19    22    1
   22     1    23    1
   23    23    24    1
   24    23    25    1
   25    23    26    1
@<TRIPOS>SUBSTRUCTURE
       1 MOL1            1 RESIDUE      1      MOL     
@<SCITEGIC>MOL_PROPERTY
VM2 Rank
SciTegic.value.IntegerValue
159

@<SCITEGIC>MOL_PROPERTY
Conf_Id
SciTegic.value.IntegerValue
107

@<SCITEGIC>MOL_PROPERTY
Probability
SciTegic.value.DoubleValue
0.01

@<SCITEGIC>MOL_PROPERTY
Sum Probability
SciTegic.value.DoubleValue
99.80

@<SCITEGIC>MOL_PROPERTY
Delta G
SciTegic.value.DoubleValue
3.885

@<SCITEGIC>MOL_PROPERTY
G
SciTegic.value.DoubleValue
79.351

@<SCITEGIC>MOL_PROPERTY
E
SciTegic.value.DoubleValue
46.772

@<SCITEGIC>MOL_PROPERTY
-TS
SciTegic.value.DoubleValue
32.579

@<SCITEGIC>MOL_PROPERTY
U+W
SciTegic.value.DoubleValue
25.310

@<SCITEGIC>MOL_PROPERTY
U
SciTegic.value.DoubleValue
74.594

@<SCITEGIC>MOL_PROPERTY
W
SciTegic.value.DoubleValue
-49.284

@<SCITEGIC>MOL_PROPERTY
W(PB)
SciTegic.value.DoubleValue
-51.537

@<SCITEGIC>MOL_PROPERTY
W(SA)
SciTegic.value.DoubleValue
2.253

@<SCITEGIC>MOL_PROPERTY
Valence
SciTegic.value.DoubleValue
4.886

@<SCITEGIC>MOL_PROPERTY
Coulomb
SciTegic.value.DoubleValue
69.332

@<SCITEGIC>MOL_PROPERTY
VdW
SciTegic.value.DoubleValue
0.376

@<SCITEGIC>MOL_PROPERTY
VdW6
SciTegic.value.DoubleValue
-7.329

@<SCITEGIC>MOL_PROPERTY
VdW12
SciTegic.value.DoubleValue
7.706

@<SCITEGIC>MOL_PROPERTY
Bond
SciTegic.value.DoubleValue
0.232

@<SCITEGIC>MOL_PROPERTY
Angle
SciTegic.value.DoubleValue
1.250

@<SCITEGIC>MOL_PROPERTY
Pdih
SciTegic.value.DoubleValue
3.403

@<SCITEGIC>MOL_PROPERTY
Idih
SciTegic.value.DoubleValue
0.000

@<SCITEGIC>MOL_PROPERTY
Tether
SciTegic.value.DoubleValue
0.000

@<TRIPOS>MOLECULE
guest-s12_vm2.mol2 : vm2 ligand conformer 160
          26          25           1
SMALL
USER_CHARGES
 
@<TRIPOS>ATOM
       1    N1      19.787396   18.430416   25.890152 N.4        1 MOL1        -0.4857
       2    H1      20.655517   18.064050   26.310780 H          1 MOL1         0.3650
       3    H2      19.273159   17.601036   25.554973 H          1 MOL1         0.3650
       4    C1      20.115404   19.347258   24.728963 C.3        1 MOL1         0.0209
       5    H3      20.667201   20.203909   25.124005 H          1 MOL1         0.0967
       6    H4      19.171480   19.707493   24.313809 H          1 MOL1         0.0967
       7    C2      20.945059   18.660417   23.626721 C.3        1 MOL1        -0.1378
       8    H5      21.869332   18.269138   24.072115 H          1 MOL1         0.0993
       9    H6      20.395922   17.793684   23.242894 H          1 MOL1         0.0993
      10    C3      21.320374   19.625934   22.473654 C.3        1 MOL1        -0.1338
      11    H7      22.046174   19.141198   21.806322 H          1 MOL1         0.0993
      12    H8      21.848518   20.485742   22.908944 H          1 MOL1         0.0993
      13    C4      20.117755   20.151619   21.642437 C.3        1 MOL1        -0.1338
      14    H9      19.219639   20.245180   22.266131 H          1 MOL1         0.0993
      15    H10     20.353725   21.173636   21.314941 H          1 MOL1         0.0993
      16    C5      19.793089   19.323488   20.372786 C.3        1 MOL1        -0.1313
      17    H11     20.661699   19.323214   19.699511 H          1 MOL1         0.0993
      18    H12     18.985537   19.829609   19.825451 H          1 MOL1         0.0993
      19    C6      19.361544   17.867570   20.653641 C.3        1 MOL1        -0.2328
      20    H13     18.546415   17.829498   21.387796 H          1 MOL1         0.1004
      21    H14     20.200379   17.268777   21.028572 H          1 MOL1         0.1004
      22    H15     19.005846   17.388970   19.732064 H          1 MOL1         0.1004
      23    C7      18.967380   19.183298   26.928647 C.3        1 MOL1        -0.0781
      24    H16     18.039746   19.532325   26.469710 H          1 MOL1         0.0978
      25    H17     18.738167   18.512085   27.759352 H          1 MOL1         0.0978
      26    H18     19.544387   20.036428   27.292224 H          1 MOL1         0.0978
@<TRIPOS>BOND
    1     1     2    1
    2     1     3    1
    3     1     4    1
    4     4     5    1
    5     4     6    1
    6     4     7    1
    7     7     8    1
    8     7     9    1
    9     7    10    1
   10    10    11    1
   11    10    12    1
   12    10    13    1
   13    13    14    1
   14    13    15    1
   15    13    16    1
   16    16    17    1
   17    16    18    1
   18    16    19    1
   19    19    20    1
   20    19    21    1
   21    19    22    1
   22     1    23    1
   23    23    24    1
   24    23    25    1
   25    23    26    1
@<TRIPOS>SUBSTRUCTURE
       1 MOL1            1 RESIDUE      1      MOL     
@<SCITEGIC>MOL_PROPERTY
VM2 Rank
SciTegic.value.IntegerValue
160

@<SCITEGIC>MOL_PROPERTY
Conf_Id
SciTegic.value.IntegerValue
1755

@<SCITEGIC>MOL_PROPERTY
Probability
SciTegic.value.DoubleValue
0.01

@<SCITEGIC>MOL_PROPERTY
Sum Probability
SciTegic.value.DoubleValue
99.81

@<SCITEGIC>MOL_PROPERTY
Delta G
SciTegic.value.DoubleValue
3.905

@<SCITEGIC>MOL_PROPERTY
G
SciTegic.value.DoubleValue
79.371

@<SCITEGIC>MOL_PROPERTY
E
SciTegic.value.DoubleValue
46.848

@<SCITEGIC>MOL_PROPERTY
-TS
SciTegic.value.DoubleValue
32.523

@<SCITEGIC>MOL_PROPERTY
U+W
SciTegic.value.DoubleValue
25.386

@<SCITEGIC>MOL_PROPERTY
U
SciTegic.value.DoubleValue
74.853

@<SCITEGIC>MOL_PROPERTY
W
SciTegic.value.DoubleValue
-49.467

@<SCITEGIC>MOL_PROPERTY
W(PB)
SciTegic.value.DoubleValue
-51.721

@<SCITEGIC>MOL_PROPERTY
W(SA)
SciTegic.value.DoubleValue
2.254

@<SCITEGIC>MOL_PROPERTY
Valence
SciTegic.value.DoubleValue
5.099

@<SCITEGIC>MOL_PROPERTY
Coulomb
SciTegic.value.DoubleValue
69.479

@<SCITEGIC>MOL_PROPERTY
VdW
SciTegic.value.DoubleValue
0.275

@<SCITEGIC>MOL_PROPERTY
VdW6
SciTegic.value.DoubleValue
-7.404

@<SCITEGIC>MOL_PROPERTY
VdW12
SciTegic.value.DoubleValue
7.679

@<SCITEGIC>MOL_PROPERTY
Bond
SciTegic.value.DoubleValue
0.247

@<SCITEGIC>MOL_PROPERTY
Angle
SciTegic.value.DoubleValue
1.395

@<SCITEGIC>MOL_PROPERTY
Pdih
SciTegic.value.DoubleValue
3.457

@<SCITEGIC>MOL_PROPERTY
Idih
SciTegic.value.DoubleValue
0.000

@<SCITEGIC>MOL_PROPERTY
Tether
SciTegic.value.DoubleValue
0.000

@<TRIPOS>MOLECULE
guest-s12_vm2.mol2 : vm2 ligand conformer 161
          26          25           1
SMALL
USER_CHARGES
 
@<TRIPOS>ATOM
       1    N1      20.255665   18.478044   25.906933 N.4        1 MOL1        -0.4857
       2    H1      20.948551   17.771553   25.614642 H          1 MOL1         0.3650
       3    H2      19.451677   17.941449   26.268120 H          1 MOL1         0.3650
       4    C1      19.832269   19.318435   24.719063 C.3        1 MOL1         0.0209
       5    H3      20.711187   19.864173   24.368653 H          1 MOL1         0.0967
       6    H4      19.093061   20.043707   25.068264 H          1 MOL1         0.0967
       7    C2      19.237234   18.486648   23.566206 C.3        1 MOL1        -0.1378
       8    H5      19.975112   17.750949   23.227986 H          1 MOL1         0.0993
       9    H6      18.381682   17.914180   23.948395 H          1 MOL1         0.0993
      10    C3      18.757156   19.365194   22.382856 C.3        1 MOL1        -0.1338
      11    H7      18.037734   20.098112   22.773940 H          1 MOL1         0.0993
      12    H8      18.192234   18.749193   21.669768 H          1 MOL1         0.0993
      13    C4      19.884758   20.127863   21.634255 C.3        1 MOL1        -0.1338
      14    H9      19.471795   21.084052   21.284089 H          1 MOL1         0.0993
      15    H10     20.699938   20.395276   22.318605 H          1 MOL1         0.0993
      16    C5      20.457092   19.391191   20.396125 C.3        1 MOL1        -0.1313
      17    H11     21.182809   20.053175   19.903193 H          1 MOL1         0.0993
      18    H12     19.655480   19.221461   19.663735 H          1 MOL1         0.0993
      19    C6      21.151487   18.049549   20.716470 C.3        1 MOL1        -0.2328
      20    H13     21.659426   17.658797   19.825295 H          1 MOL1         0.1004
      21    H14     20.425888   17.291846   21.036102 H          1 MOL1         0.1004
      22    H15     21.904428   18.170576   21.505965 H          1 MOL1         0.1004
      23    C7      20.832339   19.373077   26.995092 C.3        1 MOL1        -0.0781
      24    H16     20.071344   20.089982   27.311147 H          1 MOL1         0.0978
      25    H17     21.133019   18.755783   27.844607 H          1 MOL1         0.0978
      26    H18     21.700642   19.904953   26.599990 H          1 MOL1         0.0978
@<TRIPOS>BOND
    1     1     2    1
    2     1     3    1
    3     1     4    1
    4     4     5    1
    5     4     6    1
    6     4     7    1
    7     7     8    1
    8     7     9    1
    9     7    10    1
   10    10    11    1
   11    10    12    1
   12    10    13    1
   13    13    14    1
   14    13    15    1
   15    13    16    1
   16    16    17    1
   17    16    18    1
   18    16    19    1
   19    19    20    1
   20    19    21    1
   21    19    22    1
   22     1    23    1
   23    23    24    1
   24    23    25    1
   25    23    26    1
@<TRIPOS>SUBSTRUCTURE
       1 MOL1            1 RESIDUE      1      MOL     
@<SCITEGIC>MOL_PROPERTY
VM2 Rank
SciTegic.value.IntegerValue
161

@<SCITEGIC>MOL_PROPERTY
Conf_Id
SciTegic.value.IntegerValue
1300

@<SCITEGIC>MOL_PROPERTY
Probability
SciTegic.value.DoubleValue
0.01

@<SCITEGIC>MOL_PROPERTY
Sum Probability
SciTegic.value.DoubleValue
99.82

@<SCITEGIC>MOL_PROPERTY
Delta G
SciTegic.value.DoubleValue
3.915

@<SCITEGIC>MOL_PROPERTY
G
SciTegic.value.DoubleValue
79.381

@<SCITEGIC>MOL_PROPERTY
E
SciTegic.value.DoubleValue
46.858

@<SCITEGIC>MOL_PROPERTY
-TS
SciTegic.value.DoubleValue
32.524

@<SCITEGIC>MOL_PROPERTY
U+W
SciTegic.value.DoubleValue
25.396

@<SCITEGIC>MOL_PROPERTY
U
SciTegic.value.DoubleValue
74.853

@<SCITEGIC>MOL_PROPERTY
W
SciTegic.value.DoubleValue
-49.457

@<SCITEGIC>MOL_PROPERTY
W(PB)
SciTegic.value.DoubleValue
-51.723

@<SCITEGIC>MOL_PROPERTY
W(SA)
SciTegic.value.DoubleValue
2.266

@<SCITEGIC>MOL_PROPERTY
Valence
SciTegic.value.DoubleValue
5.100

@<SCITEGIC>MOL_PROPERTY
Coulomb
SciTegic.value.DoubleValue
69.478

@<SCITEGIC>MOL_PROPERTY
VdW
SciTegic.value.DoubleValue
0.275

@<SCITEGIC>MOL_PROPERTY
VdW6
SciTegic.value.DoubleValue
-7.403

@<SCITEGIC>MOL_PROPERTY
VdW12
SciTegic.value.DoubleValue
7.678

@<SCITEGIC>MOL_PROPERTY
Bond
SciTegic.value.DoubleValue
0.247

@<SCITEGIC>MOL_PROPERTY
Angle
SciTegic.value.DoubleValue
1.394

@<SCITEGIC>MOL_PROPERTY
Pdih
SciTegic.value.DoubleValue
3.459

@<SCITEGIC>MOL_PROPERTY
Idih
SciTegic.value.DoubleValue
0.000

@<SCITEGIC>MOL_PROPERTY
Tether
SciTegic.value.DoubleValue
0.000

@<TRIPOS>MOLECULE
guest-s12_vm2.mol2 : vm2 ligand conformer 162
          26          25           1
SMALL
USER_CHARGES
 
@<TRIPOS>ATOM
       1    N1      20.058321   19.663785   25.744495 N.4        1 MOL1        -0.4857
       2    H1      20.564822   20.404319   25.236969 H          1 MOL1         0.3650
       3    H2      20.323920   19.787402   26.734425 H          1 MOL1         0.3650
       4    C1      20.513460   18.294857   25.263031 C.3        1 MOL1         0.0209
       5    H3      19.944226   17.543971   25.816766 H          1 MOL1         0.0967
       6    H4      21.566417   18.186274   25.535219 H          1 MOL1         0.0967
       7    C2      20.358655   18.045481   23.746968 C.3        1 MOL1        -0.1378
       8    H5      20.680194   17.017403   23.534563 H          1 MOL1         0.0993
       9    H6      19.299138   18.093756   23.473943 H          1 MOL1         0.0993
      10    C3      21.198635   19.027786   22.891117 C.3        1 MOL1        -0.1338
      11    H7      22.250215   18.931166   23.195150 H          1 MOL1         0.0993
      12    H8      20.915377   20.067795   23.100100 H          1 MOL1         0.0993
      13    C4      21.101444   18.755660   21.367087 C.3        1 MOL1        -0.1338
      14    H9      22.077983   18.980891   20.916396 H          1 MOL1         0.0993
      15    H10     20.929626   17.686790   21.179808 H          1 MOL1         0.0993
      16    C5      20.038546   19.604285   20.622966 C.3        1 MOL1        -0.1313
      17    H11     20.101749   19.377902   19.549376 H          1 MOL1         0.0993
      18    H12     20.282911   20.671093   20.722874 H          1 MOL1         0.0993
      19    C6      18.587353   19.365635   21.094449 C.3        1 MOL1        -0.2328
      20    H13     17.880490   19.892666   20.440652 H          1 MOL1         0.1004
      21    H14     18.432452   19.741704   22.112860 H          1 MOL1         0.1004
      22    H15     18.333274   18.298051   21.071769 H          1 MOL1         0.1004
      23    C7      18.551587   19.832511   25.586886 C.3        1 MOL1        -0.0781
      24    H16     18.042107   19.046905   26.149068 H          1 MOL1         0.0978
      25    H17     18.259311   20.811375   25.973479 H          1 MOL1         0.0978
      26    H18     18.288978   19.761970   24.529619 H          1 MOL1         0.0978
@<TRIPOS>BOND
    1     1     2    1
    2     1     3    1
    3     1     4    1
    4     4     5    1
    5     4     6    1
    6     4     7    1
    7     7     8    1
    8     7     9    1
    9     7    10    1
   10    10    11    1
   11    10    12    1
   12    10    13    1
   13    13    14    1
   14    13    15    1
   15    13    16    1
   16    16    17    1
   17    16    18    1
   18    16    19    1
   19    19    20    1
   20    19    21    1
   21    19    22    1
   22     1    23    1
   23    23    24    1
   24    23    25    1
   25    23    26    1
@<TRIPOS>SUBSTRUCTURE
       1 MOL1            1 RESIDUE      1      MOL     
@<SCITEGIC>MOL_PROPERTY
VM2 Rank
SciTegic.value.IntegerValue
162

@<SCITEGIC>MOL_PROPERTY
Conf_Id
SciTegic.value.IntegerValue
1365

@<SCITEGIC>MOL_PROPERTY
Probability
SciTegic.value.DoubleValue
0.01

@<SCITEGIC>MOL_PROPERTY
Sum Probability
SciTegic.value.DoubleValue
99.83

@<SCITEGIC>MOL_PROPERTY
Delta G
SciTegic.value.DoubleValue
3.919

@<SCITEGIC>MOL_PROPERTY
G
SciTegic.value.DoubleValue
79.385

@<SCITEGIC>MOL_PROPERTY
E
SciTegic.value.DoubleValue
46.492

@<SCITEGIC>MOL_PROPERTY
-TS
SciTegic.value.DoubleValue
32.893

@<SCITEGIC>MOL_PROPERTY
U+W
SciTegic.value.DoubleValue
25.030

@<SCITEGIC>MOL_PROPERTY
U
SciTegic.value.DoubleValue
75.103

@<SCITEGIC>MOL_PROPERTY
W
SciTegic.value.DoubleValue
-50.073

@<SCITEGIC>MOL_PROPERTY
W(PB)
SciTegic.value.DoubleValue
-52.263

@<SCITEGIC>MOL_PROPERTY
W(SA)
SciTegic.value.DoubleValue
2.191

@<SCITEGIC>MOL_PROPERTY
Valence
SciTegic.value.DoubleValue
5.036

@<SCITEGIC>MOL_PROPERTY
Coulomb
SciTegic.value.DoubleValue
69.777

@<SCITEGIC>MOL_PROPERTY
VdW
SciTegic.value.DoubleValue
0.290

@<SCITEGIC>MOL_PROPERTY
VdW6
SciTegic.value.DoubleValue
-8.614

@<SCITEGIC>MOL_PROPERTY
VdW12
SciTegic.value.DoubleValue
8.904

@<SCITEGIC>MOL_PROPERTY
Bond
SciTegic.value.DoubleValue
0.274

@<SCITEGIC>MOL_PROPERTY
Angle
SciTegic.value.DoubleValue
1.357

@<SCITEGIC>MOL_PROPERTY
Pdih
SciTegic.value.DoubleValue
3.405

@<SCITEGIC>MOL_PROPERTY
Idih
SciTegic.value.DoubleValue
0.000

@<SCITEGIC>MOL_PROPERTY
Tether
SciTegic.value.DoubleValue
0.000

@<TRIPOS>MOLECULE
guest-s12_vm2.mol2 : vm2 ligand conformer 163
          26          25           1
SMALL
USER_CHARGES
 
@<TRIPOS>ATOM
       1    N1      20.206019   19.304151   25.967541 N.4        1 MOL1        -0.4857
       2    H1      21.005538   19.872702   25.650895 H          1 MOL1         0.3650
       3    H2      20.425936   19.052641   26.944364 H          1 MOL1         0.3650
       4    C1      20.099160   18.040321   25.128342 C.3        1 MOL1         0.0209
       5    H3      19.235648   17.475571   25.488740 H          1 MOL1         0.0967
       6    H4      20.994713   17.444180   25.321215 H          1 MOL1         0.0967
       7    C2      19.967902   18.270338   23.606943 C.3        1 MOL1        -0.1378
       8    H5      19.877415   17.292834   23.115348 H          1 MOL1         0.0993
       9    H6      19.038284   18.814651   23.402527 H          1 MOL1         0.0993
      10    C3      21.175383   19.035524   23.013785 C.3        1 MOL1        -0.1338
      11    H7      22.103300   18.555908   23.355076 H          1 MOL1         0.0993
      12    H8      21.194921   20.059864   23.409514 H          1 MOL1         0.0993
      13    C4      21.198397   19.090306   21.464244 C.3        1 MOL1        -0.1338
      14    H9      22.121867   19.605990   21.166302 H          1 MOL1         0.0993
      15    H10     21.280687   18.075818   21.050440 H          1 MOL1         0.0993
      16    C5      20.001136   19.837315   20.821239 C.3        1 MOL1        -0.1313
      17    H11     20.357945   20.361062   19.923258 H          1 MOL1         0.0993
      18    H12     19.629964   20.619067   21.498533 H          1 MOL1         0.0993
      19    C6      18.845908   18.900288   20.397056 C.3        1 MOL1        -0.2328
      20    H13     18.414880   18.363102   21.248759 H          1 MOL1         0.1004
      21    H14     19.192594   18.155826   19.668630 H          1 MOL1         0.1004
      22    H15     18.038917   19.475698   19.925287 H          1 MOL1         0.1004
      23    C7      18.914094   20.111757   25.917849 C.3        1 MOL1        -0.0781
      24    H16     18.089118   19.490862   26.273777 H          1 MOL1         0.0978
      25    H17     19.017225   20.990569   26.558234 H          1 MOL1         0.0978
      26    H18     18.724640   20.426899   24.889764 H          1 MOL1         0.0978
@<TRIPOS>BOND
    1     1     2    1
    2     1     3    1
    3     1     4    1
    4     4     5    1
    5     4     6    1
    6     4     7    1
    7     7     8    1
    8     7     9    1
    9     7    10    1
   10    10    11    1
   11    10    12    1
   12    10    13    1
   13    13    14    1
   14    13    15    1
   15    13    16    1
   16    16    17    1
   17    16    18    1
   18    16    19    1
   19    19    20    1
   20    19    21    1
   21    19    22    1
   22     1    23    1
   23    23    24    1
   24    23    25    1
   25    23    26    1
@<TRIPOS>SUBSTRUCTURE
       1 MOL1            1 RESIDUE      1      MOL     
@<SCITEGIC>MOL_PROPERTY
VM2 Rank
SciTegic.value.IntegerValue
163

@<SCITEGIC>MOL_PROPERTY
Conf_Id
SciTegic.value.IntegerValue
568

@<SCITEGIC>MOL_PROPERTY
Probability
SciTegic.value.DoubleValue
0.01

@<SCITEGIC>MOL_PROPERTY
Sum Probability
SciTegic.value.DoubleValue
99.84

@<SCITEGIC>MOL_PROPERTY
Delta G
SciTegic.value.DoubleValue
3.934

@<SCITEGIC>MOL_PROPERTY
G
SciTegic.value.DoubleValue
79.400

@<SCITEGIC>MOL_PROPERTY
E
SciTegic.value.DoubleValue
46.583

@<SCITEGIC>MOL_PROPERTY
-TS
SciTegic.value.DoubleValue
32.817

@<SCITEGIC>MOL_PROPERTY
U+W
SciTegic.value.DoubleValue
25.121

@<SCITEGIC>MOL_PROPERTY
U
SciTegic.value.DoubleValue
74.888

@<SCITEGIC>MOL_PROPERTY
W
SciTegic.value.DoubleValue
-49.767

@<SCITEGIC>MOL_PROPERTY
W(PB)
SciTegic.value.DoubleValue
-51.981

@<SCITEGIC>MOL_PROPERTY
W(SA)
SciTegic.value.DoubleValue
2.214

@<SCITEGIC>MOL_PROPERTY
Valence
SciTegic.value.DoubleValue
5.066

@<SCITEGIC>MOL_PROPERTY
Coulomb
SciTegic.value.DoubleValue
69.354

@<SCITEGIC>MOL_PROPERTY
VdW
SciTegic.value.DoubleValue
0.468

@<SCITEGIC>MOL_PROPERTY
VdW6
SciTegic.value.DoubleValue
-8.349

@<SCITEGIC>MOL_PROPERTY
VdW12
SciTegic.value.DoubleValue
8.817

@<SCITEGIC>MOL_PROPERTY
Bond
SciTegic.value.DoubleValue
0.269

@<SCITEGIC>MOL_PROPERTY
Angle
SciTegic.value.DoubleValue
1.348

@<SCITEGIC>MOL_PROPERTY
Pdih
SciTegic.value.DoubleValue
3.449

@<SCITEGIC>MOL_PROPERTY
Idih
SciTegic.value.DoubleValue
0.000

@<SCITEGIC>MOL_PROPERTY
Tether
SciTegic.value.DoubleValue
0.000

@<TRIPOS>MOLECULE
guest-s12_vm2.mol2 : vm2 ligand conformer 164
          26          25           1
SMALL
USER_CHARGES
 
@<TRIPOS>ATOM
       1    N1      19.229766   19.072084   25.459443 N.4        1 MOL1        -0.4857
       2    H1      18.596640   18.336265   25.109968 H          1 MOL1         0.3650
       3    H2      18.940565   19.937421   24.979235 H          1 MOL1         0.3650
       4    C1      20.665839   18.735765   25.106657 C.3        1 MOL1         0.0209
       5    H3      20.927326   17.814562   25.633551 H          1 MOL1         0.0967
       6    H4      21.303584   19.538370   25.485516 H          1 MOL1         0.0967
       7    C2      20.910246   18.547684   23.596605 C.3        1 MOL1        -0.1378
       8    H5      21.943270   18.203246   23.455507 H          1 MOL1         0.0993
       9    H6      20.264911   17.744439   23.223908 H          1 MOL1         0.0993
      10    C3      20.695568   19.854746   22.791044 C.3        1 MOL1        -0.1338
      11    H7      21.366342   20.621761   23.202742 H          1 MOL1         0.0993
      12    H8      19.675829   20.237466   22.929274 H          1 MOL1         0.0993
      13    C4      20.997069   19.703019   21.276975 C.3        1 MOL1        -0.1338
      14    H9      21.429541   20.647407   20.918346 H          1 MOL1         0.0993
      15    H10     21.774074   18.943093   21.116123 H          1 MOL1         0.0993
      16    C5      19.759472   19.394138   20.395778 C.3        1 MOL1        -0.1313
      17    H11     20.077161   19.376938   19.343812 H          1 MOL1         0.0993
      18    H12     19.033016   20.214501   20.479704 H          1 MOL1         0.0993
      19    C6      19.060919   18.056224   20.723143 C.3        1 MOL1        -0.2328
      20    H13     18.283973   17.837659   19.979187 H          1 MOL1         0.1004
      21    H14     18.572281   18.091129   21.704346 H          1 MOL1         0.1004
      22    H15     19.775738   17.223263   20.716153 H          1 MOL1         0.1004
      23    C7      19.089121   19.226340   26.967354 C.3        1 MOL1        -0.0781
      24    H16     19.744361   20.030751   27.308702 H          1 MOL1         0.0978
      25    H17     18.051477   19.468637   27.207558 H          1 MOL1         0.0978
      26    H18     19.370660   18.288881   27.451950 H          1 MOL1         0.0978
@<TRIPOS>BOND
    1     1     2    1
    2     1     3    1
    3     1     4    1
    4     4     5    1
    5     4     6    1
    6     4     7    1
    7     7     8    1
    8     7     9    1
    9     7    10    1
   10    10    11    1
   11    10    12    1
   12    10    13    1
   13    13    14    1
   14    13    15    1
   15    13    16    1
   16    16    17    1
   17    16    18    1
   18    16    19    1
   19    19    20    1
   20    19    21    1
   21    19    22    1
   22     1    23    1
   23    23    24    1
   24    23    25    1
   25    23    26    1
@<TRIPOS>SUBSTRUCTURE
       1 MOL1            1 RESIDUE      1      MOL     
@<SCITEGIC>MOL_PROPERTY
VM2 Rank
SciTegic.value.IntegerValue
164

@<SCITEGIC>MOL_PROPERTY
Conf_Id
SciTegic.value.IntegerValue
1607

@<SCITEGIC>MOL_PROPERTY
Probability
SciTegic.value.DoubleValue
0.01

@<SCITEGIC>MOL_PROPERTY
Sum Probability
SciTegic.value.DoubleValue
99.85

@<SCITEGIC>MOL_PROPERTY
Delta G
SciTegic.value.DoubleValue
3.951

@<SCITEGIC>MOL_PROPERTY
G
SciTegic.value.DoubleValue
79.417

@<SCITEGIC>MOL_PROPERTY
E
SciTegic.value.DoubleValue
46.833

@<SCITEGIC>MOL_PROPERTY
-TS
SciTegic.value.DoubleValue
32.584

@<SCITEGIC>MOL_PROPERTY
U+W
SciTegic.value.DoubleValue
25.372

@<SCITEGIC>MOL_PROPERTY
U
SciTegic.value.DoubleValue
74.907

@<SCITEGIC>MOL_PROPERTY
W
SciTegic.value.DoubleValue
-49.535

@<SCITEGIC>MOL_PROPERTY
W(PB)
SciTegic.value.DoubleValue
-51.746

@<SCITEGIC>MOL_PROPERTY
W(SA)
SciTegic.value.DoubleValue
2.211

@<SCITEGIC>MOL_PROPERTY
Valence
SciTegic.value.DoubleValue
4.797

@<SCITEGIC>MOL_PROPERTY
Coulomb
SciTegic.value.DoubleValue
69.863

@<SCITEGIC>MOL_PROPERTY
VdW
SciTegic.value.DoubleValue
0.248

@<SCITEGIC>MOL_PROPERTY
VdW6
SciTegic.value.DoubleValue
-7.454

@<SCITEGIC>MOL_PROPERTY
VdW12
SciTegic.value.DoubleValue
7.702

@<SCITEGIC>MOL_PROPERTY
Bond
SciTegic.value.DoubleValue
0.232

@<SCITEGIC>MOL_PROPERTY
Angle
SciTegic.value.DoubleValue
1.219

@<SCITEGIC>MOL_PROPERTY
Pdih
SciTegic.value.DoubleValue
3.345

@<SCITEGIC>MOL_PROPERTY
Idih
SciTegic.value.DoubleValue
0.000

@<SCITEGIC>MOL_PROPERTY
Tether
SciTegic.value.DoubleValue
0.000

@<TRIPOS>MOLECULE
guest-s12_vm2.mol2 : vm2 ligand conformer 165
          26          25           1
SMALL
USER_CHARGES
 
@<TRIPOS>ATOM
       1    N1      19.751241   19.632214   25.733458 N.4        1 MOL1        -0.4857
       2    H1      19.397123   19.691845   26.701357 H          1 MOL1         0.3650
       3    H2      19.140877   20.257041   25.186139 H          1 MOL1         0.3650
       4    C1      19.620758   18.202573   25.231439 C.3        1 MOL1         0.0209
       5    H3      18.595876   17.878858   25.429985 H          1 MOL1         0.0967
       6    H4      20.291368   17.580164   25.829241 H          1 MOL1         0.0967
       7    C2      19.929194   18.000947   23.731834 C.3        1 MOL1        -0.1378
       8    H5      20.972803   18.267243   23.533295 H          1 MOL1         0.0993
       9    H6      19.840815   16.930328   23.505095 H          1 MOL1         0.0993
      10    C3      18.967809   18.796301   22.811989 C.3        1 MOL1        -0.1338
      11    H7      19.016456   19.870761   23.032666 H          1 MOL1         0.0993
      12    H8      17.939697   18.483948   23.042236 H          1 MOL1         0.0993
      13    C4      19.225388   18.560850   21.300571 C.3        1 MOL1        -0.1338
      14    H9      19.625555   17.551348   21.133688 H          1 MOL1         0.0993
      15    H10     18.257477   18.584162   20.780870 H          1 MOL1         0.0993
      16    C5      20.141085   19.614824   20.626580 C.3        1 MOL1        -0.1313
      17    H11     19.676681   20.608062   20.701292 H          1 MOL1         0.0993
      18    H12     20.201095   19.388054   19.552890 H          1 MOL1         0.0993
      19    C6      21.573665   19.675547   21.200371 C.3        1 MOL1        -0.2328
      20    H13     22.042335   18.683001   21.203265 H          1 MOL1         0.1004
      21    H14     21.576312   20.067902   22.224398 H          1 MOL1         0.1004
      22    H15     22.201412   20.341188   20.593967 H          1 MOL1         0.1004
      23    C7      21.198860   20.106743   25.680758 C.3        1 MOL1        -0.0781
      24    H16     21.817498   19.438028   26.283172 H          1 MOL1         0.0978
      25    H17     21.543950   20.098889   24.645092 H          1 MOL1         0.0978
      26    H18     21.256817   21.121940   26.079595 H          1 MOL1         0.0978
@<TRIPOS>BOND
    1     1     2    1
    2     1     3    1
    3     1     4    1
    4     4     5    1
    5     4     6    1
    6     4     7    1
    7     7     8    1
    8     7     9    1
    9     7    10    1
   10    10    11    1
   11    10    12    1
   12    10    13    1
   13    13    14    1
   14    13    15    1
   15    13    16    1
   16    16    17    1
   17    16    18    1
   18    16    19    1
   19    19    20    1
   20    19    21    1
   21    19    22    1
   22     1    23    1
   23    23    24    1
   24    23    25    1
   25    23    26    1
@<TRIPOS>SUBSTRUCTURE
       1 MOL1            1 RESIDUE      1      MOL     
@<SCITEGIC>MOL_PROPERTY
VM2 Rank
SciTegic.value.IntegerValue
165

@<SCITEGIC>MOL_PROPERTY
Conf_Id
SciTegic.value.IntegerValue
575

@<SCITEGIC>MOL_PROPERTY
Probability
SciTegic.value.DoubleValue
0.01

@<SCITEGIC>MOL_PROPERTY
Sum Probability
SciTegic.value.DoubleValue
99.86

@<SCITEGIC>MOL_PROPERTY
Delta G
SciTegic.value.DoubleValue
3.962

@<SCITEGIC>MOL_PROPERTY
G
SciTegic.value.DoubleValue
79.428

@<SCITEGIC>MOL_PROPERTY
E
SciTegic.value.DoubleValue
46.535

@<SCITEGIC>MOL_PROPERTY
-TS
SciTegic.value.DoubleValue
32.892

@<SCITEGIC>MOL_PROPERTY
U+W
SciTegic.value.DoubleValue
25.074

@<SCITEGIC>MOL_PROPERTY
U
SciTegic.value.DoubleValue
75.103

@<SCITEGIC>MOL_PROPERTY
W
SciTegic.value.DoubleValue
-50.030

@<SCITEGIC>MOL_PROPERTY
W(PB)
SciTegic.value.DoubleValue
-52.209

@<SCITEGIC>MOL_PROPERTY
W(SA)
SciTegic.value.DoubleValue
2.179

@<SCITEGIC>MOL_PROPERTY
Valence
SciTegic.value.DoubleValue
5.036

@<SCITEGIC>MOL_PROPERTY
Coulomb
SciTegic.value.DoubleValue
69.777

@<SCITEGIC>MOL_PROPERTY
VdW
SciTegic.value.DoubleValue
0.290

@<SCITEGIC>MOL_PROPERTY
VdW6
SciTegic.value.DoubleValue
-8.613

@<SCITEGIC>MOL_PROPERTY
VdW12
SciTegic.value.DoubleValue
8.903

@<SCITEGIC>MOL_PROPERTY
Bond
SciTegic.value.DoubleValue
0.274

@<SCITEGIC>MOL_PROPERTY
Angle
SciTegic.value.DoubleValue
1.357

@<SCITEGIC>MOL_PROPERTY
Pdih
SciTegic.value.DoubleValue
3.406

@<SCITEGIC>MOL_PROPERTY
Idih
SciTegic.value.DoubleValue
0.000

@<SCITEGIC>MOL_PROPERTY
Tether
SciTegic.value.DoubleValue
0.000

@<TRIPOS>MOLECULE
guest-s12_vm2.mol2 : vm2 ligand conformer 166
          26          25           1
SMALL
USER_CHARGES
 
@<TRIPOS>ATOM
       1    N1      20.701585   19.221971   25.511783 N.4        1 MOL1        -0.4857
       2    H1      20.843577   20.131260   25.046943 H          1 MOL1         0.3650
       3    H2      21.492845   18.631260   25.212824 H          1 MOL1         0.3650
       4    C1      19.391024   18.605923   25.061463 C.3        1 MOL1         0.0209
       5    H3      18.579754   19.260945   25.388898 H          1 MOL1         0.0967
       6    H4      19.284048   17.647177   25.575241 H          1 MOL1         0.0967
       7    C2      19.296080   18.383341   23.539355 C.3        1 MOL1        -0.1378
       8    H5      20.114425   17.729138   23.218585 H          1 MOL1         0.0993
       9    H6      18.366033   17.839040   23.328559 H          1 MOL1         0.0993
      10    C3      19.299255   19.712622   22.741596 C.3        1 MOL1        -0.1338
      11    H7      20.208939   20.291642   22.948142 H          1 MOL1         0.0993
      12    H8      18.460773   20.326042   23.099938 H          1 MOL1         0.0993
      13    C4      19.141094   19.514246   21.211249 C.3        1 MOL1        -0.1338
      14    H9      18.545974   18.614768   21.001794 H          1 MOL1         0.0993
      15    H10     18.553705   20.354926   20.816601 H          1 MOL1         0.0993
      16    C5      20.474057   19.466888   20.420978 C.3        1 MOL1        -0.1313
      17    H11     21.012994   20.415971   20.549685 H          1 MOL1         0.0993
      18    H12     20.240668   19.393657   19.349520 H          1 MOL1         0.0993
      19    C6      21.402785   18.294502   20.805859 C.3        1 MOL1        -0.2328
      20    H13     22.257844   18.241921   20.119567 H          1 MOL1         0.1004
      21    H14     20.872348   17.334879   20.754894 H          1 MOL1         0.1004
      22    H15     21.804663   18.420009   21.818522 H          1 MOL1         0.1004
      23    C7      20.702121   19.390506   27.024716 C.3        1 MOL1        -0.0781
      24    H16     20.581890   18.412076   27.494980 H          1 MOL1         0.0978
      25    H17     21.650230   19.835101   27.335424 H          1 MOL1         0.0978
      26    H18     19.875981   20.043965   27.313536 H          1 MOL1         0.0978
@<TRIPOS>BOND
    1     1     2    1
    2     1     3    1
    3     1     4    1
    4     4     5    1
    5     4     6    1
    6     4     7    1
    7     7     8    1
    8     7     9    1
    9     7    10    1
   10    10    11    1
   11    10    12    1
   12    10    13    1
   13    13    14    1
   14    13    15    1
   15    13    16    1
   16    16    17    1
   17    16    18    1
   18    16    19    1
   19    19    20    1
   20    19    21    1
   21    19    22    1
   22     1    23    1
   23    23    24    1
   24    23    25    1
   25    23    26    1
@<TRIPOS>SUBSTRUCTURE
       1 MOL1            1 RESIDUE      1      MOL     
@<SCITEGIC>MOL_PROPERTY
VM2 Rank
SciTegic.value.IntegerValue
166

@<SCITEGIC>MOL_PROPERTY
Conf_Id
SciTegic.value.IntegerValue
1240

@<SCITEGIC>MOL_PROPERTY
Probability
SciTegic.value.DoubleValue
0.01

@<SCITEGIC>MOL_PROPERTY
Sum Probability
SciTegic.value.DoubleValue
99.87

@<SCITEGIC>MOL_PROPERTY
Delta G
SciTegic.value.DoubleValue
3.962

@<SCITEGIC>MOL_PROPERTY
G
SciTegic.value.DoubleValue
79.428

@<SCITEGIC>MOL_PROPERTY
E
SciTegic.value.DoubleValue
46.844

@<SCITEGIC>MOL_PROPERTY
-TS
SciTegic.value.DoubleValue
32.584

@<SCITEGIC>MOL_PROPERTY
U+W
SciTegic.value.DoubleValue
25.383

@<SCITEGIC>MOL_PROPERTY
U
SciTegic.value.DoubleValue
74.907

@<SCITEGIC>MOL_PROPERTY
W
SciTegic.value.DoubleValue
-49.524

@<SCITEGIC>MOL_PROPERTY
W(PB)
SciTegic.value.DoubleValue
-51.776

@<SCITEGIC>MOL_PROPERTY
W(SA)
SciTegic.value.DoubleValue
2.251

@<SCITEGIC>MOL_PROPERTY
Valence
SciTegic.value.DoubleValue
4.797

@<SCITEGIC>MOL_PROPERTY
Coulomb
SciTegic.value.DoubleValue
69.862

@<SCITEGIC>MOL_PROPERTY
VdW
SciTegic.value.DoubleValue
0.248

@<SCITEGIC>MOL_PROPERTY
VdW6
SciTegic.value.DoubleValue
-7.454

@<SCITEGIC>MOL_PROPERTY
VdW12
SciTegic.value.DoubleValue
7.702

@<SCITEGIC>MOL_PROPERTY
Bond
SciTegic.value.DoubleValue
0.232

@<SCITEGIC>MOL_PROPERTY
Angle
SciTegic.value.DoubleValue
1.220

@<SCITEGIC>MOL_PROPERTY
Pdih
SciTegic.value.DoubleValue
3.345

@<SCITEGIC>MOL_PROPERTY
Idih
SciTegic.value.DoubleValue
0.000

@<SCITEGIC>MOL_PROPERTY
Tether
SciTegic.value.DoubleValue
0.000

@<TRIPOS>MOLECULE
guest-s12_vm2.mol2 : vm2 ligand conformer 167
          26          25           1
SMALL
USER_CHARGES
 
@<TRIPOS>ATOM
       1    N1      20.363138   18.559012   25.692340 N.4        1 MOL1        -0.4857
       2    H1      20.913870   17.743323   25.383171 H          1 MOL1         0.3650
       3    H2      19.584889   18.170612   26.247537 H          1 MOL1         0.3650
       4    C1      19.824263   19.313001   24.493562 C.3        1 MOL1         0.0209
       5    H3      20.677376   19.710684   23.938885 H          1 MOL1         0.0967
       6    H4      19.232371   20.153893   24.863587 H          1 MOL1         0.0967
       7    C2      18.960220   18.440888   23.562656 C.3        1 MOL1        -0.1378
       8    H5      19.536053   17.576639   23.210077 H          1 MOL1         0.0993
       9    H6      18.118227   18.031787   24.136626 H          1 MOL1         0.0993
      10    C3      18.401647   19.230287   22.354790 C.3        1 MOL1        -0.1338
      11    H7      17.712662   20.000189   22.729034 H          1 MOL1         0.0993
      12    H8      17.789079   18.555038   21.741588 H          1 MOL1         0.0993
      13    C4      19.460243   19.917065   21.449529 C.3        1 MOL1        -0.1338
      14    H9      18.912468   20.479347   20.680574 H          1 MOL1         0.0993
      15    H10     20.022970   20.672998   22.013466 H          1 MOL1         0.0993
      16    C5      20.431787   18.948993   20.725190 C.3        1 MOL1        -0.1313
      17    H11     20.691338   19.385738   19.750562 H          1 MOL1         0.0993
      18    H12     19.928802   17.997369   20.503924 H          1 MOL1         0.0993
      19    C6      21.749897   18.694021   21.493339 C.3        1 MOL1        -0.2328
      20    H13     22.271683   19.636491   21.704048 H          1 MOL1         0.1004
      21    H14     22.424844   18.067872   20.895616 H          1 MOL1         0.1004
      22    H15     21.582286   18.177850   22.444027 H          1 MOL1         0.1004
      23    C7      21.216805   19.486733   26.545594 C.3        1 MOL1        -0.0781
      24    H16     22.051231   19.858807   25.947070 H          1 MOL1         0.0978
      25    H17     20.604743   20.323897   26.888345 H          1 MOL1         0.0978
      26    H18     21.598265   18.932200   27.405886 H          1 MOL1         0.0978
@<TRIPOS>BOND
    1     1     2    1
    2     1     3    1
    3     1     4    1
    4     4     5    1
    5     4     6    1
    6     4     7    1
    7     7     8    1
    8     7     9    1
    9     7    10    1
   10    10    11    1
   11    10    12    1
   12    10    13    1
   13    13    14    1
   14    13    15    1
   15    13    16    1
   16    16    17    1
   17    16    18    1
   18    16    19    1
   19    19    20    1
   20    19    21    1
   21    19    22    1
   22     1    23    1
   23    23    24    1
   24    23    25    1
   25    23    26    1
@<TRIPOS>SUBSTRUCTURE
       1 MOL1            1 RESIDUE      1      MOL     
@<SCITEGIC>MOL_PROPERTY
VM2 Rank
SciTegic.value.IntegerValue
167

@<SCITEGIC>MOL_PROPERTY
Conf_Id
SciTegic.value.IntegerValue
462

@<SCITEGIC>MOL_PROPERTY
Probability
SciTegic.value.DoubleValue
0.01

@<SCITEGIC>MOL_PROPERTY
Sum Probability
SciTegic.value.DoubleValue
99.87

@<SCITEGIC>MOL_PROPERTY
Delta G
SciTegic.value.DoubleValue
4.004

@<SCITEGIC>MOL_PROPERTY
G
SciTegic.value.DoubleValue
79.470

@<SCITEGIC>MOL_PROPERTY
E
SciTegic.value.DoubleValue
46.592

@<SCITEGIC>MOL_PROPERTY
-TS
SciTegic.value.DoubleValue
32.878

@<SCITEGIC>MOL_PROPERTY
U+W
SciTegic.value.DoubleValue
25.130

@<SCITEGIC>MOL_PROPERTY
U
SciTegic.value.DoubleValue
74.864

@<SCITEGIC>MOL_PROPERTY
W
SciTegic.value.DoubleValue
-49.734

@<SCITEGIC>MOL_PROPERTY
W(PB)
SciTegic.value.DoubleValue
-51.967

@<SCITEGIC>MOL_PROPERTY
W(SA)
SciTegic.value.DoubleValue
2.233

@<SCITEGIC>MOL_PROPERTY
Valence
SciTegic.value.DoubleValue
5.001

@<SCITEGIC>MOL_PROPERTY
Coulomb
SciTegic.value.DoubleValue
70.004

@<SCITEGIC>MOL_PROPERTY
VdW
SciTegic.value.DoubleValue
-0.141

@<SCITEGIC>MOL_PROPERTY
VdW6
SciTegic.value.DoubleValue
-8.153

@<SCITEGIC>MOL_PROPERTY
VdW12
SciTegic.value.DoubleValue
8.012

@<SCITEGIC>MOL_PROPERTY
Bond
SciTegic.value.DoubleValue
0.241

@<SCITEGIC>MOL_PROPERTY
Angle
SciTegic.value.DoubleValue
1.605

@<SCITEGIC>MOL_PROPERTY
Pdih
SciTegic.value.DoubleValue
3.155

@<SCITEGIC>MOL_PROPERTY
Idih
SciTegic.value.DoubleValue
0.000

@<SCITEGIC>MOL_PROPERTY
Tether
SciTegic.value.DoubleValue
0.000

@<TRIPOS>MOLECULE
guest-s12_vm2.mol2 : vm2 ligand conformer 168
          26          25           1
SMALL
USER_CHARGES
 
@<TRIPOS>ATOM
       1    N1      19.308580   19.202058   25.945356 N.4        1 MOL1        -0.4857
       2    H1      18.587759   18.917816   26.627594 H          1 MOL1         0.3650
       3    H2      18.952137   20.074265   25.527102 H          1 MOL1         0.3650
       4    C1      19.449044   18.129180   24.876655 C.3        1 MOL1         0.0209
       5    H3      18.445415   17.903342   24.507425 H          1 MOL1         0.0967
       6    H4      19.838921   17.230102   25.360539 H          1 MOL1         0.0967
       7    C2      20.350659   18.503243   23.679820 C.3        1 MOL1        -0.1378
       8    H5      21.376468   18.677161   24.029277 H          1 MOL1         0.0993
       9    H6      20.402444   17.638192   23.009494 H          1 MOL1         0.0993
      10    C3      19.839002   19.748277   22.911268 C.3        1 MOL1        -0.1338
      11    H7      19.879542   20.613832   23.586020 H          1 MOL1         0.0993
      12    H8      18.782061   19.622590   22.638541 H          1 MOL1         0.0993
      13    C4      20.677833   20.080404   21.649432 C.3        1 MOL1        -0.1338
      14    H9      20.723158   21.173501   21.546495 H          1 MOL1         0.0993
      15    H10     21.717924   19.753434   21.785427 H          1 MOL1         0.0993
      16    C5      20.108699   19.511419   20.324341 C.3        1 MOL1        -0.1313
      17    H11     20.736154   19.866310   19.494765 H          1 MOL1         0.0993
      18    H12     19.106712   19.926070   20.145786 H          1 MOL1         0.0993
      19    C6      20.041792   17.969376   20.269488 C.3        1 MOL1        -0.2328
      20    H13     21.016836   17.521707   20.501200 H          1 MOL1         0.1004
      21    H14     19.748766   17.633901   19.266257 H          1 MOL1         0.1004
      22    H15     19.299334   17.576932   20.975168 H          1 MOL1         0.1004
      23    C7      20.632392   19.446043   26.660641 C.3        1 MOL1        -0.0781
      24    H16     21.370319   19.806674   25.941216 H          1 MOL1         0.0978
      25    H17     20.483938   20.195366   27.441353 H          1 MOL1         0.0978
      26    H18     20.976183   18.510777   27.107703 H          1 MOL1         0.0978
@<TRIPOS>BOND
    1     1     2    1
    2     1     3    1
    3     1     4    1
    4     4     5    1
    5     4     6    1
    6     4     7    1
    7     7     8    1
    8     7     9    1
    9     7    10    1
   10    10    11    1
   11    10    12    1
   12    10    13    1
   13    13    14    1
   14    13    15    1
   15    13    16    1
   16    16    17    1
   17    16    18    1
   18    16    19    1
   19    19    20    1
   20    19    21    1
   21    19    22    1
   22     1    23    1
   23    23    24    1
   24    23    25    1
   25    23    26    1
@<TRIPOS>SUBSTRUCTURE
       1 MOL1            1 RESIDUE      1      MOL     
@<SCITEGIC>MOL_PROPERTY
VM2 Rank
SciTegic.value.IntegerValue
168

@<SCITEGIC>MOL_PROPERTY
Conf_Id
SciTegic.value.IntegerValue
833

@<SCITEGIC>MOL_PROPERTY
Probability
SciTegic.value.DoubleValue
0.01

@<SCITEGIC>MOL_PROPERTY
Sum Probability
SciTegic.value.DoubleValue
99.88

@<SCITEGIC>MOL_PROPERTY
Delta G
SciTegic.value.DoubleValue
4.021

@<SCITEGIC>MOL_PROPERTY
G
SciTegic.value.DoubleValue
79.487

@<SCITEGIC>MOL_PROPERTY
E
SciTegic.value.DoubleValue
46.635

@<SCITEGIC>MOL_PROPERTY
-TS
SciTegic.value.DoubleValue
32.852

@<SCITEGIC>MOL_PROPERTY
U+W
SciTegic.value.DoubleValue
25.173

@<SCITEGIC>MOL_PROPERTY
U
SciTegic.value.DoubleValue
74.855

@<SCITEGIC>MOL_PROPERTY
W
SciTegic.value.DoubleValue
-49.681

@<SCITEGIC>MOL_PROPERTY
W(PB)
SciTegic.value.DoubleValue
-51.895

@<SCITEGIC>MOL_PROPERTY
W(SA)
SciTegic.value.DoubleValue
2.214

@<SCITEGIC>MOL_PROPERTY
Valence
SciTegic.value.DoubleValue
5.096

@<SCITEGIC>MOL_PROPERTY
Coulomb
SciTegic.value.DoubleValue
69.227

@<SCITEGIC>MOL_PROPERTY
VdW
SciTegic.value.DoubleValue
0.531

@<SCITEGIC>MOL_PROPERTY
VdW6
SciTegic.value.DoubleValue
-8.269

@<SCITEGIC>MOL_PROPERTY
VdW12
SciTegic.value.DoubleValue
8.800

@<SCITEGIC>MOL_PROPERTY
Bond
SciTegic.value.DoubleValue
0.274

@<SCITEGIC>MOL_PROPERTY
Angle
SciTegic.value.DoubleValue
1.324

@<SCITEGIC>MOL_PROPERTY
Pdih
SciTegic.value.DoubleValue
3.499

@<SCITEGIC>MOL_PROPERTY
Idih
SciTegic.value.DoubleValue
0.000

@<SCITEGIC>MOL_PROPERTY
Tether
SciTegic.value.DoubleValue
0.000

@<TRIPOS>MOLECULE
guest-s12_vm2.mol2 : vm2 ligand conformer 169
          26          25           1
SMALL
USER_CHARGES
 
@<TRIPOS>ATOM
       1    N1      19.288925   18.357421   25.604117 N.4        1 MOL1        -0.4857
       2    H1      19.866510   17.502837   25.623482 H          1 MOL1         0.3650
       3    H2      18.315328   18.023143   25.682693 H          1 MOL1         0.3650
       4    C1      19.471772   19.085596   24.282977 C.3        1 MOL1         0.0209
       5    H3      18.881499   20.004461   24.321806 H          1 MOL1         0.0967
       6    H4      19.048898   18.448150   23.505252 H          1 MOL1         0.0967
       7    C2      20.938096   19.421624   23.934464 C.3        1 MOL1        -0.1378
       8    H5      21.330356   20.100067   24.702895 H          1 MOL1         0.0993
       9    H6      21.555943   18.515131   23.977689 H          1 MOL1         0.0993
      10    C3      21.097049   20.107570   22.553597 C.3        1 MOL1        -0.1338
      11    H7      22.008395   20.720598   22.585782 H          1 MOL1         0.0993
      12    H8      20.276002   20.816830   22.383699 H          1 MOL1         0.0993
      13    C4      21.239662   19.133939   21.352029 C.3        1 MOL1        -0.1338
      14    H9      21.454303   19.724112   20.450415 H          1 MOL1         0.0993
      15    H10     22.124921   18.502566   21.509801 H          1 MOL1         0.0993
      16    C5      20.023258   18.219802   21.062374 C.3        1 MOL1        -0.1313
      17    H11     19.855993   17.531362   21.900318 H          1 MOL1         0.0993
      18    H12     20.267063   17.581225   20.201805 H          1 MOL1         0.0993
      19    C6      18.728565   19.001703   20.742124 C.3        1 MOL1        -0.2328
      20    H13     18.880032   19.680850   19.893152 H          1 MOL1         0.1004
      21    H14     18.389655   19.597210   21.598105 H          1 MOL1         0.1004
      22    H15     17.917663   18.310880   20.477460 H          1 MOL1         0.1004
      23    C7      19.620671   19.262345   26.785319 C.3        1 MOL1        -0.0781
      24    H16     19.440696   18.717010   27.714450 H          1 MOL1         0.0978
      25    H17     20.670283   19.557989   26.731235 H          1 MOL1         0.0978
      26    H18     18.983192   20.148396   26.748610 H          1 MOL1         0.0978
@<TRIPOS>BOND
    1     1     2    1
    2     1     3    1
    3     1     4    1
    4     4     5    1
    5     4     6    1
    6     4     7    1
    7     7     8    1
    8     7     9    1
    9     7    10    1
   10    10    11    1
   11    10    12    1
   12    10    13    1
   13    13    14    1
   14    13    15    1
   15    13    16    1
   16    16    17    1
   17    16    18    1
   18    16    19    1
   19    19    20    1
   20    19    21    1
   21    19    22    1
   22     1    23    1
   23    23    24    1
   24    23    25    1
   25    23    26    1
@<TRIPOS>SUBSTRUCTURE
       1 MOL1            1 RESIDUE      1      MOL     
@<SCITEGIC>MOL_PROPERTY
VM2 Rank
SciTegic.value.IntegerValue
169

@<SCITEGIC>MOL_PROPERTY
Conf_Id
SciTegic.value.IntegerValue
749

@<SCITEGIC>MOL_PROPERTY
Probability
SciTegic.value.DoubleValue
0.01

@<SCITEGIC>MOL_PROPERTY
Sum Probability
SciTegic.value.DoubleValue
99.89

@<SCITEGIC>MOL_PROPERTY
Delta G
SciTegic.value.DoubleValue
4.026

@<SCITEGIC>MOL_PROPERTY
G
SciTegic.value.DoubleValue
79.492

@<SCITEGIC>MOL_PROPERTY
E
SciTegic.value.DoubleValue
46.319

@<SCITEGIC>MOL_PROPERTY
-TS
SciTegic.value.DoubleValue
33.173

@<SCITEGIC>MOL_PROPERTY
U+W
SciTegic.value.DoubleValue
24.857

@<SCITEGIC>MOL_PROPERTY
U
SciTegic.value.DoubleValue
74.834

@<SCITEGIC>MOL_PROPERTY
W
SciTegic.value.DoubleValue
-49.977

@<SCITEGIC>MOL_PROPERTY
W(PB)
SciTegic.value.DoubleValue
-52.172

@<SCITEGIC>MOL_PROPERTY
W(SA)
SciTegic.value.DoubleValue
2.195

@<SCITEGIC>MOL_PROPERTY
Valence
SciTegic.value.DoubleValue
4.933

@<SCITEGIC>MOL_PROPERTY
Coulomb
SciTegic.value.DoubleValue
69.669

@<SCITEGIC>MOL_PROPERTY
VdW
SciTegic.value.DoubleValue
0.232

@<SCITEGIC>MOL_PROPERTY
VdW6
SciTegic.value.DoubleValue
-8.762

@<SCITEGIC>MOL_PROPERTY
VdW12
SciTegic.value.DoubleValue
8.993

@<SCITEGIC>MOL_PROPERTY
Bond
SciTegic.value.DoubleValue
0.278

@<SCITEGIC>MOL_PROPERTY
Angle
SciTegic.value.DoubleValue
1.765

@<SCITEGIC>MOL_PROPERTY
Pdih
SciTegic.value.DoubleValue
2.890

@<SCITEGIC>MOL_PROPERTY
Idih
SciTegic.value.DoubleValue
0.000

@<SCITEGIC>MOL_PROPERTY
Tether
SciTegic.value.DoubleValue
0.000

@<TRIPOS>MOLECULE
guest-s12_vm2.mol2 : vm2 ligand conformer 170
          26          25           1
SMALL
USER_CHARGES
 
@<TRIPOS>ATOM
       1    N1      19.923021   19.187446   26.120733 N.4        1 MOL1        -0.4857
       2    H1      20.112280   19.940407   26.801224 H          1 MOL1         0.3650
       3    H2      20.325150   18.337598   26.545463 H          1 MOL1         0.3650
       4    C1      20.621800   19.500513   24.808405 C.3        1 MOL1         0.0209
       5    H3      21.655276   19.765802   25.045283 H          1 MOL1         0.0967
       6    H4      20.137101   20.378077   24.374785 H          1 MOL1         0.0967
       7    C2      20.623096   18.338583   23.791914 C.3        1 MOL1        -0.1378
       8    H5      21.060050   17.452221   24.270278 H          1 MOL1         0.0993
       9    H6      19.593694   18.072047   23.531742 H          1 MOL1         0.0993
      10    C3      21.437853   18.665899   22.514579 C.3        1 MOL1        -0.1338
      11    H7      21.544353   17.760666   21.901183 H          1 MOL1         0.0993
      12    H8      22.457762   18.935477   22.822377 H          1 MOL1         0.0993
      13    C4      20.861124   19.818759   21.647387 C.3        1 MOL1        -0.1338
      14    H9      20.364712   20.570994   22.273530 H          1 MOL1         0.0993
      15    H10     21.704887   20.341852   21.176350 H          1 MOL1         0.0993
      16    C5      19.907315   19.366439   20.512015 C.3        1 MOL1        -0.1313
      17    H11     20.441988   18.695708   19.824987 H          1 MOL1         0.0993
      18    H12     19.630986   20.249703   19.919265 H          1 MOL1         0.0993
      19    C6      18.614711   18.676627   21.000046 C.3        1 MOL1        -0.2328
      20    H13     18.827170   17.688770   21.426276 H          1 MOL1         0.1004
      21    H14     17.920756   18.527371   20.162776 H          1 MOL1         0.1004
      22    H15     18.101761   19.283715   21.757188 H          1 MOL1         0.1004
      23    C7      18.419081   19.035733   25.921921 C.3        1 MOL1        -0.0781
      24    H16     18.225389   18.195891   25.251735 H          1 MOL1         0.0978
      25    H17     17.948061   18.849063   26.889586 H          1 MOL1         0.0978
      26    H18     18.019897   19.955543   25.488991 H          1 MOL1         0.0978
@<TRIPOS>BOND
    1     1     2    1
    2     1     3    1
    3     1     4    1
    4     4     5    1
    5     4     6    1
    6     4     7    1
    7     7     8    1
    8     7     9    1
    9     7    10    1
   10    10    11    1
   11    10    12    1
   12    10    13    1
   13    13    14    1
   14    13    15    1
   15    13    16    1
   16    16    17    1
   17    16    18    1
   18    16    19    1
   19    19    20    1
   20    19    21    1
   21    19    22    1
   22     1    23    1
   23    23    24    1
   24    23    25    1
   25    23    26    1
@<TRIPOS>SUBSTRUCTURE
       1 MOL1            1 RESIDUE      1      MOL     
@<SCITEGIC>MOL_PROPERTY
VM2 Rank
SciTegic.value.IntegerValue
170

@<SCITEGIC>MOL_PROPERTY
Conf_Id
SciTegic.value.IntegerValue
1595

@<SCITEGIC>MOL_PROPERTY
Probability
SciTegic.value.DoubleValue
0.01

@<SCITEGIC>MOL_PROPERTY
Sum Probability
SciTegic.value.DoubleValue
99.90

@<SCITEGIC>MOL_PROPERTY
Delta G
SciTegic.value.DoubleValue
4.035

@<SCITEGIC>MOL_PROPERTY
G
SciTegic.value.DoubleValue
79.501

@<SCITEGIC>MOL_PROPERTY
E
SciTegic.value.DoubleValue
46.839

@<SCITEGIC>MOL_PROPERTY
-TS
SciTegic.value.DoubleValue
32.662

@<SCITEGIC>MOL_PROPERTY
U+W
SciTegic.value.DoubleValue
25.377

@<SCITEGIC>MOL_PROPERTY
U
SciTegic.value.DoubleValue
75.162

@<SCITEGIC>MOL_PROPERTY
W
SciTegic.value.DoubleValue
-49.786

@<SCITEGIC>MOL_PROPERTY
W(PB)
SciTegic.value.DoubleValue
-51.972

@<SCITEGIC>MOL_PROPERTY
W(SA)
SciTegic.value.DoubleValue
2.187

@<SCITEGIC>MOL_PROPERTY
Valence
SciTegic.value.DoubleValue
5.357

@<SCITEGIC>MOL_PROPERTY
Coulomb
SciTegic.value.DoubleValue
69.345

@<SCITEGIC>MOL_PROPERTY
VdW
SciTegic.value.DoubleValue
0.461

@<SCITEGIC>MOL_PROPERTY
VdW6
SciTegic.value.DoubleValue
-8.236

@<SCITEGIC>MOL_PROPERTY
VdW12
SciTegic.value.DoubleValue
8.696

@<SCITEGIC>MOL_PROPERTY
Bond
SciTegic.value.DoubleValue
0.287

@<SCITEGIC>MOL_PROPERTY
Angle
SciTegic.value.DoubleValue
1.527

@<SCITEGIC>MOL_PROPERTY
Pdih
SciTegic.value.DoubleValue
3.543

@<SCITEGIC>MOL_PROPERTY
Idih
SciTegic.value.DoubleValue
0.000

@<SCITEGIC>MOL_PROPERTY
Tether
SciTegic.value.DoubleValue
0.000

@<TRIPOS>MOLECULE
guest-s12_vm2.mol2 : vm2 ligand conformer 171
          26          25           1
SMALL
USER_CHARGES
 
@<TRIPOS>ATOM
       1    N1      20.777509   18.509044   25.656935 N.4        1 MOL1        -0.4857
       2    H1      21.790508   18.376872   25.805827 H          1 MOL1         0.3650
       3    H2      20.383678   17.555645   25.642094 H          1 MOL1         0.3650
       4    C1      20.544830   19.194723   24.320980 C.3        1 MOL1         0.0209
       5    H3      21.140824   18.660942   23.579438 H          1 MOL1         0.0967
       6    H4      20.933801   20.213327   24.394380 H          1 MOL1         0.0967
       7    C2      19.068975   19.231031   23.868200 C.3        1 MOL1        -0.1378
       8    H5      18.644894   18.218388   23.874475 H          1 MOL1         0.0993
       9    H6      18.495252   19.811043   24.602411 H          1 MOL1         0.0993
      10    C3      18.872260   19.880769   22.474743 C.3        1 MOL1        -0.1338
      11    H7      19.543381   20.742134   22.357783 H          1 MOL1         0.0993
      12    H8      17.856108   20.297325   22.438601 H          1 MOL1         0.0993
      13    C4      19.013355   18.907021   21.273090 C.3        1 MOL1        -0.1338
      14    H9      18.264672   18.109077   21.372916 H          1 MOL1         0.0993
      15    H10     18.747897   19.448285   20.354478 H          1 MOL1         0.0993
      16    C5      20.406276   18.258893   21.075888 C.3        1 MOL1        -0.1313
      17    H11     20.357106   17.590571   20.204840 H          1 MOL1         0.0993
      18    H12     20.649680   17.612199   21.928307 H          1 MOL1         0.0993
      19    C6      21.536035   19.287963   20.841749 C.3        1 MOL1        -0.2328
      20    H13     21.687156   19.933269   21.715210 H          1 MOL1         0.1004
      21    H14     21.310681   19.928849   19.979535 H          1 MOL1         0.1004
      22    H15     22.486026   18.776668   20.639409 H          1 MOL1         0.1004
      23    C7      20.188760   19.320556   26.805415 C.3        1 MOL1        -0.0781
      24    H16     19.107553   19.399484   26.675901 H          1 MOL1         0.0978
      25    H17     20.409238   18.816111   27.748809 H          1 MOL1         0.0978
      26    H18     20.636048   20.316923   26.806924 H          1 MOL1         0.0978
@<TRIPOS>BOND
    1     1     2    1
    2     1     3    1
    3     1     4    1
    4     4     5    1
    5     4     6    1
    6     4     7    1
    7     7     8    1
    8     7     9    1
    9     7    10    1
   10    10    11    1
   11    10    12    1
   12    10    13    1
   13    13    14    1
   14    13    15    1
   15    13    16    1
   16    16    17    1
   17    16    18    1
   18    16    19    1
   19    19    20    1
   20    19    21    1
   21    19    22    1
   22     1    23    1
   23    23    24    1
   24    23    25    1
   25    23    26    1
@<TRIPOS>SUBSTRUCTURE
       1 MOL1            1 RESIDUE      1      MOL     
@<SCITEGIC>MOL_PROPERTY
VM2 Rank
SciTegic.value.IntegerValue
171

@<SCITEGIC>MOL_PROPERTY
Conf_Id
SciTegic.value.IntegerValue
254

@<SCITEGIC>MOL_PROPERTY
Probability
SciTegic.value.DoubleValue
0.01

@<SCITEGIC>MOL_PROPERTY
Sum Probability
SciTegic.value.DoubleValue
99.91

@<SCITEGIC>MOL_PROPERTY
Delta G
SciTegic.value.DoubleValue
4.041

@<SCITEGIC>MOL_PROPERTY
G
SciTegic.value.DoubleValue
79.507

@<SCITEGIC>MOL_PROPERTY
E
SciTegic.value.DoubleValue
46.335

@<SCITEGIC>MOL_PROPERTY
-TS
SciTegic.value.DoubleValue
33.172

@<SCITEGIC>MOL_PROPERTY
U+W
SciTegic.value.DoubleValue
24.873

@<SCITEGIC>MOL_PROPERTY
U
SciTegic.value.DoubleValue
74.834

@<SCITEGIC>MOL_PROPERTY
W
SciTegic.value.DoubleValue
-49.962

@<SCITEGIC>MOL_PROPERTY
W(PB)
SciTegic.value.DoubleValue
-52.184

@<SCITEGIC>MOL_PROPERTY
W(SA)
SciTegic.value.DoubleValue
2.222

@<SCITEGIC>MOL_PROPERTY
Valence
SciTegic.value.DoubleValue
4.933

@<SCITEGIC>MOL_PROPERTY
Coulomb
SciTegic.value.DoubleValue
69.669

@<SCITEGIC>MOL_PROPERTY
VdW
SciTegic.value.DoubleValue
0.232

@<SCITEGIC>MOL_PROPERTY
VdW6
SciTegic.value.DoubleValue
-8.762

@<SCITEGIC>MOL_PROPERTY
VdW12
SciTegic.value.DoubleValue
8.994

@<SCITEGIC>MOL_PROPERTY
Bond
SciTegic.value.DoubleValue
0.278

@<SCITEGIC>MOL_PROPERTY
Angle
SciTegic.value.DoubleValue
1.765

@<SCITEGIC>MOL_PROPERTY
Pdih
SciTegic.value.DoubleValue
2.890

@<SCITEGIC>MOL_PROPERTY
Idih
SciTegic.value.DoubleValue
0.000

@<SCITEGIC>MOL_PROPERTY
Tether
SciTegic.value.DoubleValue
0.000

@<TRIPOS>MOLECULE
guest-s12_vm2.mol2 : vm2 ligand conformer 172
          26          25           1
SMALL
USER_CHARGES
 
@<TRIPOS>ATOM
       1    N1      20.307979   19.647139   25.249993 N.4        1 MOL1        -0.4857
       2    H1      20.914920   20.012438   24.501350 H          1 MOL1         0.3650
       3    H2      20.947793   19.272481   25.967618 H          1 MOL1         0.3650
       4    C1      19.427967   18.538103   24.707234 C.3        1 MOL1         0.0209
       5    H3      18.742989   18.970408   23.975213 H          1 MOL1         0.0967
       6    H4      18.831515   18.153829   25.538580 H          1 MOL1         0.0967
       7    C2      20.213699   17.378767   24.064529 C.3        1 MOL1        -0.1378
       8    H5      20.837909   16.908051   24.835644 H          1 MOL1         0.0993
       9    H6      19.500488   16.608234   23.743080 H          1 MOL1         0.0993
      10    C3      21.112143   17.775620   22.862417 C.3        1 MOL1        -0.1338
      11    H7      21.655808   16.872471   22.552031 H          1 MOL1         0.0993
      12    H8      21.887788   18.487594   23.174246 H          1 MOL1         0.0993
      13    C4      20.347930   18.316002   21.624893 C.3        1 MOL1        -0.1338
      14    H9      20.935751   18.071448   20.729183 H          1 MOL1         0.0993
      15    H10     19.391804   17.786674   21.511713 H          1 MOL1         0.0993
      16    C5      20.115739   19.846783   21.639314 C.3        1 MOL1        -0.1313
      17    H11     21.076656   20.366355   21.758609 H          1 MOL1         0.0993
      18    H12     19.489662   20.138985   22.489684 H          1 MOL1         0.0993
      19    C6      19.438195   20.329121   20.338978 C.3        1 MOL1        -0.2328
      20    H13     20.056012   20.097845   19.461474 H          1 MOL1         0.1004
      21    H14     19.281818   21.415399   20.363105 H          1 MOL1         0.1004
      22    H15     18.459269   19.851091   20.203333 H          1 MOL1         0.1004
      23    C7      19.444349   20.758464   25.829642 C.3        1 MOL1        -0.0781
      24    H16     20.090509   21.549940   26.215824 H          1 MOL1         0.0978
      25    H17     18.799181   21.158871   25.044603 H          1 MOL1         0.0978
      26    H18     18.833830   20.352956   26.639420 H          1 MOL1         0.0978
@<TRIPOS>BOND
    1     1     2    1
    2     1     3    1
    3     1     4    1
    4     4     5    1
    5     4     6    1
    6     4     7    1
    7     7     8    1
    8     7     9    1
    9     7    10    1
   10    10    11    1
   11    10    12    1
   12    10    13    1
   13    13    14    1
   14    13    15    1
   15    13    16    1
   16    16    17    1
   17    16    18    1
   18    16    19    1
   19    19    20    1
   20    19    21    1
   21    19    22    1
   22     1    23    1
   23    23    24    1
   24    23    25    1
   25    23    26    1
@<TRIPOS>SUBSTRUCTURE
       1 MOL1            1 RESIDUE      1      MOL     
@<SCITEGIC>MOL_PROPERTY
VM2 Rank
SciTegic.value.IntegerValue
172

@<SCITEGIC>MOL_PROPERTY
Conf_Id
SciTegic.value.IntegerValue
427

@<SCITEGIC>MOL_PROPERTY
Probability
SciTegic.value.DoubleValue
0.01

@<SCITEGIC>MOL_PROPERTY
Sum Probability
SciTegic.value.DoubleValue
99.91

@<SCITEGIC>MOL_PROPERTY
Delta G
SciTegic.value.DoubleValue
4.053

@<SCITEGIC>MOL_PROPERTY
G
SciTegic.value.DoubleValue
79.519

@<SCITEGIC>MOL_PROPERTY
E
SciTegic.value.DoubleValue
46.794

@<SCITEGIC>MOL_PROPERTY
-TS
SciTegic.value.DoubleValue
32.725

@<SCITEGIC>MOL_PROPERTY
U+W
SciTegic.value.DoubleValue
25.333

@<SCITEGIC>MOL_PROPERTY
U
SciTegic.value.DoubleValue
74.862

@<SCITEGIC>MOL_PROPERTY
W
SciTegic.value.DoubleValue
-49.529

@<SCITEGIC>MOL_PROPERTY
W(PB)
SciTegic.value.DoubleValue
-51.763

@<SCITEGIC>MOL_PROPERTY
W(SA)
SciTegic.value.DoubleValue
2.234

@<SCITEGIC>MOL_PROPERTY
Valence
SciTegic.value.DoubleValue
4.457

@<SCITEGIC>MOL_PROPERTY
Coulomb
SciTegic.value.DoubleValue
70.609

@<SCITEGIC>MOL_PROPERTY
VdW
SciTegic.value.DoubleValue
-0.205

@<SCITEGIC>MOL_PROPERTY
VdW6
SciTegic.value.DoubleValue
-8.103

@<SCITEGIC>MOL_PROPERTY
VdW12
SciTegic.value.DoubleValue
7.898

@<SCITEGIC>MOL_PROPERTY
Bond
SciTegic.value.DoubleValue
0.231

@<SCITEGIC>MOL_PROPERTY
Angle
SciTegic.value.DoubleValue
1.446

@<SCITEGIC>MOL_PROPERTY
Pdih
SciTegic.value.DoubleValue
2.780

@<SCITEGIC>MOL_PROPERTY
Idih
SciTegic.value.DoubleValue
0.000

@<SCITEGIC>MOL_PROPERTY
Tether
SciTegic.value.DoubleValue
0.000

@<TRIPOS>MOLECULE
guest-s12_vm2.mol2 : vm2 ligand conformer 173
          26          25           1
SMALL
USER_CHARGES
 
@<TRIPOS>ATOM
       1    N1      19.544826   19.567312   25.223071 N.4        1 MOL1        -0.4857
       2    H1      18.947812   19.063342   25.897093 H          1 MOL1         0.3650
       3    H2      18.929192   19.804693   24.431282 H          1 MOL1         0.3650
       4    C1      20.670677   18.668030   24.751142 C.3        1 MOL1         0.0209
       5    H3      21.274162   18.409232   25.624862 H          1 MOL1         0.0967
       6    H4      21.300920   19.237866   24.065562 H          1 MOL1         0.0967
       7    C2      20.188249   17.376085   24.063648 C.3        1 MOL1        -0.1378
       8    H5      21.065929   16.771865   23.798485 H          1 MOL1         0.0993
       9    H6      19.622415   16.780980   24.792697 H          1 MOL1         0.0993
      10    C3      19.313464   17.587507   22.798809 C.3        1 MOL1        -0.1338
      11    H7      18.387585   18.121540   23.050452 H          1 MOL1         0.0993
      12    H8      18.991210   16.593805   22.457779 H          1 MOL1         0.0993
      13    C4      20.034120   18.283188   21.613827 C.3        1 MOL1        -0.1338
      14    H9      21.084539   17.963783   21.571695 H          1 MOL1         0.0993
      15    H10     19.573682   17.928936   20.681015 H          1 MOL1         0.0993
      16    C5      19.943260   19.828757   21.633203 C.3        1 MOL1        -0.1313
      17    H11     20.434291   20.237864   22.523149 H          1 MOL1         0.0993
      18    H12     18.889749   20.137572   21.681100 H          1 MOL1         0.0993
      19    C6      20.595810   20.450215   20.379983 C.3        1 MOL1        -0.2328
      20    H13     20.522104   21.545146   20.406973 H          1 MOL1         0.1004
      21    H14     20.102193   20.102573   19.463094 H          1 MOL1         0.1004
      22    H15     21.659469   20.185944   20.316767 H          1 MOL1         0.1004
      23    C7      20.117594   20.828906   25.853318 C.3        1 MOL1        -0.0781
      24    H16     20.719195   21.359673   25.112225 H          1 MOL1         0.0978
      25    H17     19.296505   21.466939   26.187712 H          1 MOL1         0.0978
      26    H18     20.740783   20.552480   26.706626 H          1 MOL1         0.0978
@<TRIPOS>BOND
    1     1     2    1
    2     1     3    1
    3     1     4    1
    4     4     5    1
    5     4     6    1
    6     4     7    1
    7     7     8    1
    8     7     9    1
    9     7    10    1
   10    10    11    1
   11    10    12    1
   12    10    13    1
   13    13    14    1
   14    13    15    1
   15    13    16    1
   16    16    17    1
   17    16    18    1
   18    16    19    1
   19    19    20    1
   20    19    21    1
   21    19    22    1
   22     1    23    1
   23    23    24    1
   24    23    25    1
   25    23    26    1
@<TRIPOS>SUBSTRUCTURE
       1 MOL1            1 RESIDUE      1      MOL     
@<SCITEGIC>MOL_PROPERTY
VM2 Rank
SciTegic.value.IntegerValue
173

@<SCITEGIC>MOL_PROPERTY
Conf_Id
SciTegic.value.IntegerValue
418

@<SCITEGIC>MOL_PROPERTY
Probability
SciTegic.value.DoubleValue
0.01

@<SCITEGIC>MOL_PROPERTY
Sum Probability
SciTegic.value.DoubleValue
99.92

@<SCITEGIC>MOL_PROPERTY
Delta G
SciTegic.value.DoubleValue
4.056

@<SCITEGIC>MOL_PROPERTY
G
SciTegic.value.DoubleValue
79.522

@<SCITEGIC>MOL_PROPERTY
E
SciTegic.value.DoubleValue
46.797

@<SCITEGIC>MOL_PROPERTY
-TS
SciTegic.value.DoubleValue
32.725

@<SCITEGIC>MOL_PROPERTY
U+W
SciTegic.value.DoubleValue
25.335

@<SCITEGIC>MOL_PROPERTY
U
SciTegic.value.DoubleValue
74.861

@<SCITEGIC>MOL_PROPERTY
W
SciTegic.value.DoubleValue
-49.526

@<SCITEGIC>MOL_PROPERTY
W(PB)
SciTegic.value.DoubleValue
-51.752

@<SCITEGIC>MOL_PROPERTY
W(SA)
SciTegic.value.DoubleValue
2.225

@<SCITEGIC>MOL_PROPERTY
Valence
SciTegic.value.DoubleValue
4.458

@<SCITEGIC>MOL_PROPERTY
Coulomb
SciTegic.value.DoubleValue
70.609

@<SCITEGIC>MOL_PROPERTY
VdW
SciTegic.value.DoubleValue
-0.205

@<SCITEGIC>MOL_PROPERTY
VdW6
SciTegic.value.DoubleValue
-8.103

@<SCITEGIC>MOL_PROPERTY
VdW12
SciTegic.value.DoubleValue
7.898

@<SCITEGIC>MOL_PROPERTY
Bond
SciTegic.value.DoubleValue
0.231

@<SCITEGIC>MOL_PROPERTY
Angle
SciTegic.value.DoubleValue
1.446

@<SCITEGIC>MOL_PROPERTY
Pdih
SciTegic.value.DoubleValue
2.781

@<SCITEGIC>MOL_PROPERTY
Idih
SciTegic.value.DoubleValue
0.000

@<SCITEGIC>MOL_PROPERTY
Tether
SciTegic.value.DoubleValue
0.000

@<TRIPOS>MOLECULE
guest-s12_vm2.mol2 : vm2 ligand conformer 174
          26          25           1
SMALL
USER_CHARGES
 
@<TRIPOS>ATOM
       1    N1      19.954634   19.190456   26.121949 N.4        1 MOL1        -0.4857
       2    H1      19.705010   18.273481   26.523432 H          1 MOL1         0.3650
       3    H2      19.569054   19.884156   26.782213 H          1 MOL1         0.3650
       4    C1      19.300396   19.364571   24.761743 C.3        1 MOL1         0.0209
       5    H3      19.625695   20.325508   24.356950 H          1 MOL1         0.0967
       6    H4      18.220579   19.412478   24.923802 H          1 MOL1         0.0967
       7    C2      19.606485   18.234140   23.755870 C.3        1 MOL1        -0.1378
       8    H5      20.684213   18.184298   23.570340 H          1 MOL1         0.0993
       9    H6      19.326382   17.273975   24.208668 H          1 MOL1         0.0993
      10    C3      18.833720   18.398469   22.422316 C.3        1 MOL1        -0.1338
      11    H7      17.761318   18.453072   22.655984 H          1 MOL1         0.0993
      12    H8      18.956494   17.494965   21.809412 H          1 MOL1         0.0993
      13    C4      19.223641   19.650715   21.589514 C.3        1 MOL1        -0.1338
      14    H9      18.326301   19.995191   21.057017 H          1 MOL1         0.0993
      15    H10     19.512130   20.483390   22.243554 H          1 MOL1         0.0993
      16    C5      20.326334   19.409681   20.526790 C.3        1 MOL1        -0.1313
      17    H11     20.458494   20.334998   19.948700 H          1 MOL1         0.0993
      18    H12     19.988174   18.649552   19.808726 H          1 MOL1         0.0993
      19    C6      21.694644   18.992762   21.108809 C.3        1 MOL1        -0.2328
      20    H13     22.019634   19.685689   21.895685 H          1 MOL1         0.1004
      21    H14     22.461221   18.993477   20.323168 H          1 MOL1         0.1004
      22    H15     21.657676   17.979252   21.526066 H          1 MOL1         0.1004
      23    C7      21.468146   19.349206   26.030009 C.3        1 MOL1        -0.0781
      24    H16     21.701237   20.334137   25.619634 H          1 MOL1         0.0978
      25    H17     21.898378   19.255092   27.029571 H          1 MOL1         0.0978
      26    H18     21.875000   18.571260   25.380956 H          1 MOL1         0.0978
@<TRIPOS>BOND
    1     1     2    1
    2     1     3    1
    3     1     4    1
    4     4     5    1
    5     4     6    1
    6     4     7    1
    7     7     8    1
    8     7     9    1
    9     7    10    1
   10    10    11    1
   11    10    12    1
   12    10    13    1
   13    13    14    1
   14    13    15    1
   15    13    16    1
   16    16    17    1
   17    16    18    1
   18    16    19    1
   19    19    20    1
   20    19    21    1
   21    19    22    1
   22     1    23    1
   23    23    24    1
   24    23    25    1
   25    23    26    1
@<TRIPOS>SUBSTRUCTURE
       1 MOL1            1 RESIDUE      1      MOL     
@<SCITEGIC>MOL_PROPERTY
VM2 Rank
SciTegic.value.IntegerValue
174

@<SCITEGIC>MOL_PROPERTY
Conf_Id
SciTegic.value.IntegerValue
529

@<SCITEGIC>MOL_PROPERTY
Probability
SciTegic.value.DoubleValue
0.01

@<SCITEGIC>MOL_PROPERTY
Sum Probability
SciTegic.value.DoubleValue
99.93

@<SCITEGIC>MOL_PROPERTY
Delta G
SciTegic.value.DoubleValue
4.068

@<SCITEGIC>MOL_PROPERTY
G
SciTegic.value.DoubleValue
79.534

@<SCITEGIC>MOL_PROPERTY
E
SciTegic.value.DoubleValue
46.872

@<SCITEGIC>MOL_PROPERTY
-TS
SciTegic.value.DoubleValue
32.663

@<SCITEGIC>MOL_PROPERTY
U+W
SciTegic.value.DoubleValue
25.410

@<SCITEGIC>MOL_PROPERTY
U
SciTegic.value.DoubleValue
75.162

@<SCITEGIC>MOL_PROPERTY
W
SciTegic.value.DoubleValue
-49.752

@<SCITEGIC>MOL_PROPERTY
W(PB)
SciTegic.value.DoubleValue
-51.930

@<SCITEGIC>MOL_PROPERTY
W(SA)
SciTegic.value.DoubleValue
2.177

@<SCITEGIC>MOL_PROPERTY
Valence
SciTegic.value.DoubleValue
5.357

@<SCITEGIC>MOL_PROPERTY
Coulomb
SciTegic.value.DoubleValue
69.345

@<SCITEGIC>MOL_PROPERTY
VdW
SciTegic.value.DoubleValue
0.460

@<SCITEGIC>MOL_PROPERTY
VdW6
SciTegic.value.DoubleValue
-8.236

@<SCITEGIC>MOL_PROPERTY
VdW12
SciTegic.value.DoubleValue
8.696

@<SCITEGIC>MOL_PROPERTY
Bond
SciTegic.value.DoubleValue
0.287

@<SCITEGIC>MOL_PROPERTY
Angle
SciTegic.value.DoubleValue
1.526

@<SCITEGIC>MOL_PROPERTY
Pdih
SciTegic.value.DoubleValue
3.545

@<SCITEGIC>MOL_PROPERTY
Idih
SciTegic.value.DoubleValue
0.000

@<SCITEGIC>MOL_PROPERTY
Tether
SciTegic.value.DoubleValue
0.000

@<TRIPOS>MOLECULE
guest-s12_vm2.mol2 : vm2 ligand conformer 175
          26          25           1
SMALL
USER_CHARGES
 
@<TRIPOS>ATOM
       1    N1      19.975566   19.496241   26.049269 N.4        1 MOL1        -0.4857
       2    H1      19.316401   20.218712   25.723535 H          1 MOL1         0.3650
       3    H2      20.383703   19.878125   26.917270 H          1 MOL1         0.3650
       4    C1      21.075092   19.287527   25.019283 C.3        1 MOL1         0.0209
       5    H3      21.741302   18.510509   25.402551 H          1 MOL1         0.0967
       6    H4      21.645534   20.217768   24.957163 H          1 MOL1         0.0967
       7    C2      20.592695   18.899440   23.604121 C.3        1 MOL1        -0.1378
       8    H5      21.481991   18.729698   22.985172 H          1 MOL1         0.0993
       9    H6      20.048419   17.947233   23.642982 H          1 MOL1         0.0993
      10    C3      19.711079   19.990907   22.949721 C.3        1 MOL1        -0.1338
      11    H7      20.294183   20.916414   22.845766 H          1 MOL1         0.0993
      12    H8      18.872688   20.230478   23.616808 H          1 MOL1         0.0993
      13    C4      19.122315   19.595387   21.570553 C.3        1 MOL1        -0.1338
      14    H9      18.448304   18.734681   21.680695 H          1 MOL1         0.0993
      15    H10     18.486863   20.425784   21.232694 H          1 MOL1         0.0993
      16    C5      20.175066   19.314571   20.467104 C.3        1 MOL1        -0.1313
      17    H11     21.089883   19.893793   20.654785 H          1 MOL1         0.0993
      18    H12     19.781000   19.676693   19.507113 H          1 MOL1         0.0993
      19    C6      20.511459   17.813251   20.307304 C.3        1 MOL1        -0.2328
      20    H13     20.930447   17.383551   21.223753 H          1 MOL1         0.1004
      21    H14     21.246989   17.667852   19.505581 H          1 MOL1         0.1004
      22    H15     19.614952   17.237042   20.044052 H          1 MOL1         0.1004
      23    C7      19.244728   18.192676   26.349646 C.3        1 MOL1        -0.0781
      24    H16     19.963676   17.452711   26.707901 H          1 MOL1         0.0978
      25    H17     18.489622   18.375133   27.117477 H          1 MOL1         0.0978
      26    H18     18.762470   17.831100   25.439239 H          1 MOL1         0.0978
@<TRIPOS>BOND
    1     1     2    1
    2     1     3    1
    3     1     4    1
    4     4     5    1
    5     4     6    1
    6     4     7    1
    7     7     8    1
    8     7     9    1
    9     7    10    1
   10    10    11    1
   11    10    12    1
   12    10    13    1
   13    13    14    1
   14    13    15    1
   15    13    16    1
   16    16    17    1
   17    16    18    1
   18    16    19    1
   19    19    20    1
   20    19    21    1
   21    19    22    1
   22     1    23    1
   23    23    24    1
   24    23    25    1
   25    23    26    1
@<TRIPOS>SUBSTRUCTURE
       1 MOL1            1 RESIDUE      1      MOL     
@<SCITEGIC>MOL_PROPERTY
VM2 Rank
SciTegic.value.IntegerValue
175

@<SCITEGIC>MOL_PROPERTY
Conf_Id
SciTegic.value.IntegerValue
66

@<SCITEGIC>MOL_PROPERTY
Probability
SciTegic.value.DoubleValue
0.01

@<SCITEGIC>MOL_PROPERTY
Sum Probability
SciTegic.value.DoubleValue
99.94

@<SCITEGIC>MOL_PROPERTY
Delta G
SciTegic.value.DoubleValue
4.069

@<SCITEGIC>MOL_PROPERTY
G
SciTegic.value.DoubleValue
79.535

@<SCITEGIC>MOL_PROPERTY
E
SciTegic.value.DoubleValue
46.743

@<SCITEGIC>MOL_PROPERTY
-TS
SciTegic.value.DoubleValue
32.793

@<SCITEGIC>MOL_PROPERTY
U+W
SciTegic.value.DoubleValue
25.281

@<SCITEGIC>MOL_PROPERTY
U
SciTegic.value.DoubleValue
74.926

@<SCITEGIC>MOL_PROPERTY
W
SciTegic.value.DoubleValue
-49.645

@<SCITEGIC>MOL_PROPERTY
W(PB)
SciTegic.value.DoubleValue
-51.850

@<SCITEGIC>MOL_PROPERTY
W(SA)
SciTegic.value.DoubleValue
2.206

@<SCITEGIC>MOL_PROPERTY
Valence
SciTegic.value.DoubleValue
5.130

@<SCITEGIC>MOL_PROPERTY
Coulomb
SciTegic.value.DoubleValue
69.227

@<SCITEGIC>MOL_PROPERTY
VdW
SciTegic.value.DoubleValue
0.569

@<SCITEGIC>MOL_PROPERTY
VdW6
SciTegic.value.DoubleValue
-8.233

@<SCITEGIC>MOL_PROPERTY
VdW12
SciTegic.value.DoubleValue
8.801

@<SCITEGIC>MOL_PROPERTY
Bond
SciTegic.value.DoubleValue
0.274

@<SCITEGIC>MOL_PROPERTY
Angle
SciTegic.value.DoubleValue
1.422

@<SCITEGIC>MOL_PROPERTY
Pdih
SciTegic.value.DoubleValue
3.434

@<SCITEGIC>MOL_PROPERTY
Idih
SciTegic.value.DoubleValue
0.000

@<SCITEGIC>MOL_PROPERTY
Tether
SciTegic.value.DoubleValue
0.000

@<TRIPOS>MOLECULE
guest-s12_vm2.mol2 : vm2 ligand conformer 176
          26          25           1
SMALL
USER_CHARGES
 
@<TRIPOS>ATOM
       1    N1      19.681469   18.489529   25.668180 N.4        1 MOL1        -0.4857
       2    H1      20.481124   18.262050   26.279389 H          1 MOL1         0.3650
       3    H2      19.329580   17.581787   25.326976 H          1 MOL1         0.3650
       4    C1      20.140036   19.345233   24.504805 C.3        1 MOL1         0.0209
       5    H3      20.522973   20.285437   24.909439 H          1 MOL1         0.0967
       6    H4      19.265301   19.566884   23.888909 H          1 MOL1         0.0967
       7    C2      21.225112   18.671798   23.642928 C.3        1 MOL1        -0.1378
       8    H5      22.089968   18.436662   24.277350 H          1 MOL1         0.0993
       9    H6      20.861376   17.711786   23.257056 H          1 MOL1         0.0993
      10    C3      21.696326   19.566181   22.471548 C.3        1 MOL1        -0.1338
      11    H7      22.473837   19.032648   21.907599 H          1 MOL1         0.0993
      12    H8      22.188053   20.456459   22.887621 H          1 MOL1         0.0993
      13    C4      20.587097   20.031939   21.489475 C.3        1 MOL1        -0.1338
      14    H9      19.845458   20.654883   22.007194 H          1 MOL1         0.0993
      15    H10     21.062780   20.698569   20.756781 H          1 MOL1         0.0993
      16    C5      19.883803   18.893095   20.705805 C.3        1 MOL1        -0.1313
      17    H11     20.582503   18.063966   20.527190 H          1 MOL1         0.0993
      18    H12     19.610524   19.275469   19.712265 H          1 MOL1         0.0993
      19    C6      18.593599   18.372258   21.381509 C.3        1 MOL1        -0.2328
      20    H13     17.879059   19.188684   21.548209 H          1 MOL1         0.1004
      21    H14     18.794725   17.893868   22.345368 H          1 MOL1         0.1004
      22    H15     18.102364   17.627071   20.742547 H          1 MOL1         0.1004
      23    C7      18.600560   19.219966   26.452751 C.3        1 MOL1        -0.0781
      24    H16     17.752326   19.420372   25.794513 H          1 MOL1         0.0978
      25    H17     18.279370   18.593809   27.288146 H          1 MOL1         0.0978
      26    H18     19.005653   20.160902   26.831539 H          1 MOL1         0.0978
@<TRIPOS>BOND
    1     1     2    1
    2     1     3    1
    3     1     4    1
    4     4     5    1
    5     4     6    1
    6     4     7    1
    7     7     8    1
    8     7     9    1
    9     7    10    1
   10    10    11    1
   11    10    12    1
   12    10    13    1
   13    13    14    1
   14    13    15    1
   15    13    16    1
   16    16    17    1
   17    16    18    1
   18    16    19    1
   19    19    20    1
   20    19    21    1
   21    19    22    1
   22     1    23    1
   23    23    24    1
   24    23    25    1
   25    23    26    1
@<TRIPOS>SUBSTRUCTURE
       1 MOL1            1 RESIDUE      1      MOL     
@<SCITEGIC>MOL_PROPERTY
VM2 Rank
SciTegic.value.IntegerValue
176

@<SCITEGIC>MOL_PROPERTY
Conf_Id
SciTegic.value.IntegerValue
1339

@<SCITEGIC>MOL_PROPERTY
Probability
SciTegic.value.DoubleValue
0.01

@<SCITEGIC>MOL_PROPERTY
Sum Probability
SciTegic.value.DoubleValue
99.94

@<SCITEGIC>MOL_PROPERTY
Delta G
SciTegic.value.DoubleValue
4.076

@<SCITEGIC>MOL_PROPERTY
G
SciTegic.value.DoubleValue
79.542

@<SCITEGIC>MOL_PROPERTY
E
SciTegic.value.DoubleValue
46.664

@<SCITEGIC>MOL_PROPERTY
-TS
SciTegic.value.DoubleValue
32.878

@<SCITEGIC>MOL_PROPERTY
U+W
SciTegic.value.DoubleValue
25.202

@<SCITEGIC>MOL_PROPERTY
U
SciTegic.value.DoubleValue
74.864

@<SCITEGIC>MOL_PROPERTY
W
SciTegic.value.DoubleValue
-49.662

@<SCITEGIC>MOL_PROPERTY
W(PB)
SciTegic.value.DoubleValue
-51.863

@<SCITEGIC>MOL_PROPERTY
W(SA)
SciTegic.value.DoubleValue
2.201

@<SCITEGIC>MOL_PROPERTY
Valence
SciTegic.value.DoubleValue
5.001

@<SCITEGIC>MOL_PROPERTY
Coulomb
SciTegic.value.DoubleValue
70.004

@<SCITEGIC>MOL_PROPERTY
VdW
SciTegic.value.DoubleValue
-0.141

@<SCITEGIC>MOL_PROPERTY
VdW6
SciTegic.value.DoubleValue
-8.153

@<SCITEGIC>MOL_PROPERTY
VdW12
SciTegic.value.DoubleValue
8.012

@<SCITEGIC>MOL_PROPERTY
Bond
SciTegic.value.DoubleValue
0.241

@<SCITEGIC>MOL_PROPERTY
Angle
SciTegic.value.DoubleValue
1.605

@<SCITEGIC>MOL_PROPERTY
Pdih
SciTegic.value.DoubleValue
3.155

@<SCITEGIC>MOL_PROPERTY
Idih
SciTegic.value.DoubleValue
0.000

@<SCITEGIC>MOL_PROPERTY
Tether
SciTegic.value.DoubleValue
0.000

@<TRIPOS>MOLECULE
guest-s12_vm2.mol2 : vm2 ligand conformer 177
          26          25           1
SMALL
USER_CHARGES
 
@<TRIPOS>ATOM
       1    N1      19.847371   19.483653   26.044747 N.4        1 MOL1        -0.4857
       2    H1      19.311830   19.771259   26.879202 H          1 MOL1         0.3650
       3    H2      20.371920   20.324435   25.761021 H          1 MOL1         0.3650
       4    C1      18.885961   19.068873   24.941552 C.3        1 MOL1         0.0209
       5    H3      18.148807   19.868490   24.832795 H          1 MOL1         0.0967
       6    H4      18.361101   18.172952   25.282631 H          1 MOL1         0.0967
       7    C2      19.533800   18.793426   23.566618 C.3        1 MOL1        -0.1378
       8    H5      20.251055   17.967004   23.650402 H          1 MOL1         0.0993
       9    H6      18.741245   18.455963   22.887849 H          1 MOL1         0.0993
      10    C3      20.226710   20.041853   22.968212 C.3        1 MOL1        -0.1338
      11    H7      20.952569   20.437149   23.690826 H          1 MOL1         0.0993
      12    H8      19.481424   20.835040   22.817274 H          1 MOL1         0.0993
      13    C4      20.977123   19.779957   21.636495 C.3        1 MOL1        -0.1338
      14    H9      21.458797   20.721612   21.338532 H          1 MOL1         0.0993
      15    H10     21.797949   19.067974   21.799481 H          1 MOL1         0.0993
      16    C5      20.080323   19.305472   20.463741 C.3        1 MOL1        -0.1313
      17    H11     20.461730   19.745111   19.531405 H          1 MOL1         0.0993
      18    H12     19.058503   19.691872   20.582864 H          1 MOL1         0.0993
      19    C6      20.058162   17.768520   20.290688 C.3        1 MOL1        -0.2328
      20    H13     21.066777   17.382029   20.094823 H          1 MOL1         0.1004
      21    H14     19.423709   17.487054   19.440305 H          1 MOL1         0.1004
      22    H15     19.668784   17.258032   21.178302 H          1 MOL1         0.1004
      23    C7      20.798549   18.348247   26.404948 C.3        1 MOL1        -0.0781
      24    H16     21.405558   18.095544   25.533264 H          1 MOL1         0.0978
      25    H17     21.446785   18.671021   27.222656 H          1 MOL1         0.0978
      26    H18     20.216723   17.478252   26.716985 H          1 MOL1         0.0978
@<TRIPOS>BOND
    1     1     2    1
    2     1     3    1
    3     1     4    1
    4     4     5    1
    5     4     6    1
    6     4     7    1
    7     7     8    1
    8     7     9    1
    9     7    10    1
   10    10    11    1
   11    10    12    1
   12    10    13    1
   13    13    14    1
   14    13    15    1
   15    13    16    1
   16    16    17    1
   17    16    18    1
   18    16    19    1
   19    19    20    1
   20    19    21    1
   21    19    22    1
   22     1    23    1
   23    23    24    1
   24    23    25    1
   25    23    26    1
@<TRIPOS>SUBSTRUCTURE
       1 MOL1            1 RESIDUE      1      MOL     
@<SCITEGIC>MOL_PROPERTY
VM2 Rank
SciTegic.value.IntegerValue
177

@<SCITEGIC>MOL_PROPERTY
Conf_Id
SciTegic.value.IntegerValue
1555

@<SCITEGIC>MOL_PROPERTY
Probability
SciTegic.value.DoubleValue
0.01

@<SCITEGIC>MOL_PROPERTY
Sum Probability
SciTegic.value.DoubleValue
99.95

@<SCITEGIC>MOL_PROPERTY
Delta G
SciTegic.value.DoubleValue
4.093

@<SCITEGIC>MOL_PROPERTY
G
SciTegic.value.DoubleValue
79.559

@<SCITEGIC>MOL_PROPERTY
E
SciTegic.value.DoubleValue
46.767

@<SCITEGIC>MOL_PROPERTY
-TS
SciTegic.value.DoubleValue
32.792

@<SCITEGIC>MOL_PROPERTY
U+W
SciTegic.value.DoubleValue
25.305

@<SCITEGIC>MOL_PROPERTY
U
SciTegic.value.DoubleValue
74.926

@<SCITEGIC>MOL_PROPERTY
W
SciTegic.value.DoubleValue
-49.621

@<SCITEGIC>MOL_PROPERTY
W(PB)
SciTegic.value.DoubleValue
-51.836

@<SCITEGIC>MOL_PROPERTY
W(SA)
SciTegic.value.DoubleValue
2.215

@<SCITEGIC>MOL_PROPERTY
Valence
SciTegic.value.DoubleValue
5.130

@<SCITEGIC>MOL_PROPERTY
Coulomb
SciTegic.value.DoubleValue
69.227

@<SCITEGIC>MOL_PROPERTY
VdW
SciTegic.value.DoubleValue
0.569

@<SCITEGIC>MOL_PROPERTY
VdW6
SciTegic.value.DoubleValue
-8.233

@<SCITEGIC>MOL_PROPERTY
VdW12
SciTegic.value.DoubleValue
8.801

@<SCITEGIC>MOL_PROPERTY
Bond
SciTegic.value.DoubleValue
0.274

@<SCITEGIC>MOL_PROPERTY
Angle
SciTegic.value.DoubleValue
1.422

@<SCITEGIC>MOL_PROPERTY
Pdih
SciTegic.value.DoubleValue
3.434

@<SCITEGIC>MOL_PROPERTY
Idih
SciTegic.value.DoubleValue
0.000

@<SCITEGIC>MOL_PROPERTY
Tether
SciTegic.value.DoubleValue
0.000

@<TRIPOS>MOLECULE
guest-s12_vm2.mol2 : vm2 ligand conformer 178
          26          25           1
SMALL
USER_CHARGES
 
@<TRIPOS>ATOM
       1    N1      19.738726   18.202517   25.855538 N.4        1 MOL1        -0.4857
       2    H1      20.247706   17.365948   25.530931 H          1 MOL1         0.3650
       3    H2      18.884538   17.836775   26.305519 H          1 MOL1         0.3650
       4    C1      19.355370   19.076570   24.672967 C.3        1 MOL1         0.0209
       5    H3      18.860332   19.969989   25.061591 H          1 MOL1         0.0967
       6    H4      18.627256   18.515870   24.082626 H          1 MOL1         0.0967
       7    C2      20.537741   19.484228   23.767458 C.3        1 MOL1        -0.1378
       8    H5      21.262908   20.057585   24.358889 H          1 MOL1         0.0993
       9    H6      21.060943   18.585111   23.424352 H          1 MOL1         0.0993
      10    C3      20.092798   20.352081   22.562728 C.3        1 MOL1        -0.1338
      11    H7      20.976803   20.766545   22.058917 H          1 MOL1         0.0993
      12    H8      19.542447   21.219394   22.953294 H          1 MOL1         0.0993
      13    C4      19.197085   19.620791   21.525260 C.3        1 MOL1        -0.1338
      14    H9      18.576080   18.857261   22.010672 H          1 MOL1         0.0993
      15    H10     18.490093   20.353417   21.111907 H          1 MOL1         0.0993
      16    C5      19.963952   18.994606   20.332368 C.3        1 MOL1        -0.1313
      17    H11     20.499262   19.781701   19.783087 H          1 MOL1         0.0993
      18    H12     19.230304   18.578545   19.627726 H          1 MOL1         0.0993
      19    C6      20.956443   17.879334   20.727398 C.3        1 MOL1        -0.2328
      20    H13     21.811382   18.284875   21.281895 H          1 MOL1         0.1004
      21    H14     21.353704   17.385048   19.831439 H          1 MOL1         0.1004
      22    H15     20.468475   17.113876   21.344498 H          1 MOL1         0.1004
      23    C7      20.565884   18.979873   26.873283 C.3        1 MOL1        -0.0781
      24    H16     20.787609   18.331004   27.723509 H          1 MOL1         0.0978
      25    H17     21.498244   19.306510   26.408534 H          1 MOL1         0.0978
      26    H18     19.995633   19.847953   27.211036 H          1 MOL1         0.0978
@<TRIPOS>BOND
    1     1     2    1
    2     1     3    1
    3     1     4    1
    4     4     5    1
    5     4     6    1
    6     4     7    1
    7     7     8    1
    8     7     9    1
    9     7    10    1
   10    10    11    1
   11    10    12    1
   12    10    13    1
   13    13    14    1
   14    13    15    1
   15    13    16    1
   16    16    17    1
   17    16    18    1
   18    16    19    1
   19    19    20    1
   20    19    21    1
   21    19    22    1
   22     1    23    1
   23    23    24    1
   24    23    25    1
   25    23    26    1
@<TRIPOS>SUBSTRUCTURE
       1 MOL1            1 RESIDUE      1      MOL     
@<SCITEGIC>MOL_PROPERTY
VM2 Rank
SciTegic.value.IntegerValue
178

@<SCITEGIC>MOL_PROPERTY
Conf_Id
SciTegic.value.IntegerValue
1624

@<SCITEGIC>MOL_PROPERTY
Probability
SciTegic.value.DoubleValue
0.01

@<SCITEGIC>MOL_PROPERTY
Sum Probability
SciTegic.value.DoubleValue
99.96

@<SCITEGIC>MOL_PROPERTY
Delta G
SciTegic.value.DoubleValue
4.228

@<SCITEGIC>MOL_PROPERTY
G
SciTegic.value.DoubleValue
79.694

@<SCITEGIC>MOL_PROPERTY
E
SciTegic.value.DoubleValue
46.985

@<SCITEGIC>MOL_PROPERTY
-TS
SciTegic.value.DoubleValue
32.709

@<SCITEGIC>MOL_PROPERTY
U+W
SciTegic.value.DoubleValue
25.523

@<SCITEGIC>MOL_PROPERTY
U
SciTegic.value.DoubleValue
75.336

@<SCITEGIC>MOL_PROPERTY
W
SciTegic.value.DoubleValue
-49.813

@<SCITEGIC>MOL_PROPERTY
W(PB)
SciTegic.value.DoubleValue
-52.045

@<SCITEGIC>MOL_PROPERTY
W(SA)
SciTegic.value.DoubleValue
2.231

@<SCITEGIC>MOL_PROPERTY
Valence
SciTegic.value.DoubleValue
5.408

@<SCITEGIC>MOL_PROPERTY
Coulomb
SciTegic.value.DoubleValue
69.355

@<SCITEGIC>MOL_PROPERTY
VdW
SciTegic.value.DoubleValue
0.572

@<SCITEGIC>MOL_PROPERTY
VdW6
SciTegic.value.DoubleValue
-8.078

@<SCITEGIC>MOL_PROPERTY
VdW12
SciTegic.value.DoubleValue
8.650

@<SCITEGIC>MOL_PROPERTY
Bond
SciTegic.value.DoubleValue
0.286

@<SCITEGIC>MOL_PROPERTY
Angle
SciTegic.value.DoubleValue
1.495

@<SCITEGIC>MOL_PROPERTY
Pdih
SciTegic.value.DoubleValue
3.627

@<SCITEGIC>MOL_PROPERTY
Idih
SciTegic.value.DoubleValue
0.000

@<SCITEGIC>MOL_PROPERTY
Tether
SciTegic.value.DoubleValue
0.000

@<TRIPOS>MOLECULE
guest-s12_vm2.mol2 : vm2 ligand conformer 179
          26          25           1
SMALL
USER_CHARGES
 
@<TRIPOS>ATOM
       1    N1      18.980779   19.352253   25.007396 N.4        1 MOL1        -0.4857
       2    H1      17.982488   19.106983   25.102237 H          1 MOL1         0.3650
       3    H2      19.017433   20.063510   24.262581 H          1 MOL1         0.3650
       4    C1      19.771923   18.122644   24.589660 C.3        1 MOL1         0.0209
       5    H3      19.260247   17.670328   23.737833 H          1 MOL1         0.0967
       6    H4      19.731521   17.408381   25.415884 H          1 MOL1         0.0967
       7    C2      21.245638   18.388246   24.213075 C.3        1 MOL1        -0.1378
       8    H5      21.785880   18.716553   25.110430 H          1 MOL1         0.0993
       9    H6      21.708923   17.436963   23.920042 H          1 MOL1         0.0993
      10    C3      21.465688   19.432837   23.086137 C.3        1 MOL1        -0.1338
      11    H7      22.549333   19.594663   23.002470 H          1 MOL1         0.0993
      12    H8      21.048821   20.407429   23.372849 H          1 MOL1         0.0993
      13    C4      20.944743   19.010207   21.687094 C.3        1 MOL1        -0.1338
      14    H9      21.547603   19.530873   20.930070 H          1 MOL1         0.0993
      15    H10     21.121717   17.937627   21.527801 H          1 MOL1         0.0993
      16    C5      19.457063   19.351715   21.429224 C.3        1 MOL1        -0.1313
      17    H11     19.284983   20.421729   21.610740 H          1 MOL1         0.0993
      18    H12     18.806477   18.802647   22.118715 H          1 MOL1         0.0993
      19    C6      19.040435   19.010879   19.982501 C.3        1 MOL1        -0.2328
      20    H13     19.172635   17.940882   19.775491 H          1 MOL1         0.1004
      21    H14     19.637609   19.576031   19.255044 H          1 MOL1         0.1004
      22    H15     17.984163   19.258158   19.814634 H          1 MOL1         0.1004
      23    C7      19.501730   19.921219   26.321913 C.3        1 MOL1        -0.0781
      24    H16     19.436792   19.153259   27.095714 H          1 MOL1         0.0978
      25    H17     20.540632   20.231898   26.194040 H          1 MOL1         0.0978
      26    H18     18.892706   20.782565   26.605069 H          1 MOL1         0.0978
@<TRIPOS>BOND
    1     1     2    1
    2     1     3    1
    3     1     4    1
    4     4     5    1
    5     4     6    1
    6     4     7    1
    7     7     8    1
    8     7     9    1
    9     7    10    1
   10    10    11    1
   11    10    12    1
   12    10    13    1
   13    13    14    1
   14    13    15    1
   15    13    16    1
   16    16    17    1
   17    16    18    1
   18    16    19    1
   19    19    20    1
   20    19    21    1
   21    19    22    1
   22     1    23    1
   23    23    24    1
   24    23    25    1
   25    23    26    1
@<TRIPOS>SUBSTRUCTURE
       1 MOL1            1 RESIDUE      1      MOL     
@<SCITEGIC>MOL_PROPERTY
VM2 Rank
SciTegic.value.IntegerValue
179

@<SCITEGIC>MOL_PROPERTY
Conf_Id
SciTegic.value.IntegerValue
1824

@<SCITEGIC>MOL_PROPERTY
Probability
SciTegic.value.DoubleValue
0.01

@<SCITEGIC>MOL_PROPERTY
Sum Probability
SciTegic.value.DoubleValue
99.96

@<SCITEGIC>MOL_PROPERTY
Delta G
SciTegic.value.DoubleValue
4.289

@<SCITEGIC>MOL_PROPERTY
G
SciTegic.value.DoubleValue
79.755

@<SCITEGIC>MOL_PROPERTY
E
SciTegic.value.DoubleValue
46.886

@<SCITEGIC>MOL_PROPERTY
-TS
SciTegic.value.DoubleValue
32.870

@<SCITEGIC>MOL_PROPERTY
U+W
SciTegic.value.DoubleValue
25.424

@<SCITEGIC>MOL_PROPERTY
U
SciTegic.value.DoubleValue
75.499

@<SCITEGIC>MOL_PROPERTY
W
SciTegic.value.DoubleValue
-50.075

@<SCITEGIC>MOL_PROPERTY
W(PB)
SciTegic.value.DoubleValue
-52.287

@<SCITEGIC>MOL_PROPERTY
W(SA)
SciTegic.value.DoubleValue
2.213

@<SCITEGIC>MOL_PROPERTY
Valence
SciTegic.value.DoubleValue
4.692

@<SCITEGIC>MOL_PROPERTY
Coulomb
SciTegic.value.DoubleValue
70.717

@<SCITEGIC>MOL_PROPERTY
VdW
SciTegic.value.DoubleValue
0.089

@<SCITEGIC>MOL_PROPERTY
VdW6
SciTegic.value.DoubleValue
-8.740

@<SCITEGIC>MOL_PROPERTY
VdW12
SciTegic.value.DoubleValue
8.830

@<SCITEGIC>MOL_PROPERTY
Bond
SciTegic.value.DoubleValue
0.270

@<SCITEGIC>MOL_PROPERTY
Angle
SciTegic.value.DoubleValue
1.624

@<SCITEGIC>MOL_PROPERTY
Pdih
SciTegic.value.DoubleValue
2.799

@<SCITEGIC>MOL_PROPERTY
Idih
SciTegic.value.DoubleValue
0.000

@<SCITEGIC>MOL_PROPERTY
Tether
SciTegic.value.DoubleValue
0.000

@<TRIPOS>MOLECULE
guest-s12_vm2.mol2 : vm2 ligand conformer 180
          26          25           1
SMALL
USER_CHARGES
 
@<TRIPOS>ATOM
       1    N1      20.919072   19.552324   25.076012 N.4        1 MOL1        -0.4857
       2    H1      20.790192   20.246586   24.325432 H          1 MOL1         0.3650
       3    H2      21.937291   19.515169   25.242102 H          1 MOL1         0.3650
       4    C1      20.426562   18.190273   24.612762 C.3        1 MOL1         0.0209
       5    H3      21.077991   17.858077   23.802021 H          1 MOL1         0.0967
       6    H4      20.553979   17.493256   25.444858 H          1 MOL1         0.0967
       7    C2      18.959653   18.152430   24.132207 C.3        1 MOL1        -0.1378
       8    H5      18.721739   17.128769   23.814468 H          1 MOL1         0.0993
       9    H6      18.302435   18.357264   24.987192 H          1 MOL1         0.0993
      10    C3      18.610549   19.138180   22.985035 C.3        1 MOL1        -0.1338
      11    H7      18.798738   20.175246   23.293081 H          1 MOL1         0.0993
      12    H8      17.525248   19.076136   22.824579 H          1 MOL1         0.0993
      13    C4      19.303374   18.840689   21.629007 C.3        1 MOL1        -0.1338
      14    H9      19.360782   17.755718   21.465712 H          1 MOL1         0.0993
      15    H10     18.661349   19.232542   20.827835 H          1 MOL1         0.0993
      16    C5      20.704257   19.480675   21.473247 C.3        1 MOL1        -0.1313
      17    H11     21.403352   19.071415   22.210748 H          1 MOL1         0.0993
      18    H12     20.640986   20.562011   21.658177 H          1 MOL1         0.0993
      19    C6      21.282025   19.242035   20.061868 C.3        1 MOL1        -0.2328
      20    H13     22.274585   19.701108   19.966408 H          1 MOL1         0.1004
      21    H14     20.634418   19.678140   19.290102 H          1 MOL1         0.1004
      22    H15     21.386099   18.169038   19.854336 H          1 MOL1         0.1004
      23    C7      20.202508   19.993394   26.346862 C.3        1 MOL1        -0.0781
      24    H16     19.133588   20.086497   26.144544 H          1 MOL1         0.0978
      25    H17     20.368586   19.249191   27.128737 H          1 MOL1         0.0978
      26    H18     20.601685   20.958783   26.665746 H          1 MOL1         0.0978
@<TRIPOS>BOND
    1     1     2    1
    2     1     3    1
    3     1     4    1
    4     4     5    1
    5     4     6    1
    6     4     7    1
    7     7     8    1
    8     7     9    1
    9     7    10    1
   10    10    11    1
   11    10    12    1
   12    10    13    1
   13    13    14    1
   14    13    15    1
   15    13    16    1
   16    16    17    1
   17    16    18    1
   18    16    19    1
   19    19    20    1
   20    19    21    1
   21    19    22    1
   22     1    23    1
   23    23    24    1
   24    23    25    1
   25    23    26    1
@<TRIPOS>SUBSTRUCTURE
       1 MOL1            1 RESIDUE      1      MOL     
@<SCITEGIC>MOL_PROPERTY
VM2 Rank
SciTegic.value.IntegerValue
180

@<SCITEGIC>MOL_PROPERTY
Conf_Id
SciTegic.value.IntegerValue
838

@<SCITEGIC>MOL_PROPERTY
Probability
SciTegic.value.DoubleValue
0.00

@<SCITEGIC>MOL_PROPERTY
Sum Probability
SciTegic.value.DoubleValue
99.97

@<SCITEGIC>MOL_PROPERTY
Delta G
SciTegic.value.DoubleValue
4.386

@<SCITEGIC>MOL_PROPERTY
G
SciTegic.value.DoubleValue
79.852

@<SCITEGIC>MOL_PROPERTY
E
SciTegic.value.DoubleValue
46.983

@<SCITEGIC>MOL_PROPERTY
-TS
SciTegic.value.DoubleValue
32.870

@<SCITEGIC>MOL_PROPERTY
U+W
SciTegic.value.DoubleValue
25.521

@<SCITEGIC>MOL_PROPERTY
U
SciTegic.value.DoubleValue
75.498

@<SCITEGIC>MOL_PROPERTY
W
SciTegic.value.DoubleValue
-49.977

@<SCITEGIC>MOL_PROPERTY
W(PB)
SciTegic.value.DoubleValue
-52.163

@<SCITEGIC>MOL_PROPERTY
W(SA)
SciTegic.value.DoubleValue
2.185

@<SCITEGIC>MOL_PROPERTY
Valence
SciTegic.value.DoubleValue
4.692

@<SCITEGIC>MOL_PROPERTY
Coulomb
SciTegic.value.DoubleValue
70.717

@<SCITEGIC>MOL_PROPERTY
VdW
SciTegic.value.DoubleValue
0.089

@<SCITEGIC>MOL_PROPERTY
VdW6
SciTegic.value.DoubleValue
-8.740

@<SCITEGIC>MOL_PROPERTY
VdW12
SciTegic.value.DoubleValue
8.830

@<SCITEGIC>MOL_PROPERTY
Bond
SciTegic.value.DoubleValue
0.270

@<SCITEGIC>MOL_PROPERTY
Angle
SciTegic.value.DoubleValue
1.623

@<SCITEGIC>MOL_PROPERTY
Pdih
SciTegic.value.DoubleValue
2.800

@<SCITEGIC>MOL_PROPERTY
Idih
SciTegic.value.DoubleValue
0.000

@<SCITEGIC>MOL_PROPERTY
Tether
SciTegic.value.DoubleValue
0.000

@<TRIPOS>MOLECULE
guest-s12_vm2.mol2 : vm2 ligand conformer 181
          26          25           1
SMALL
USER_CHARGES
 
@<TRIPOS>ATOM
       1    N1      20.135056   19.291237   25.546131 N.4        1 MOL1        -0.4857
       2    H1      20.892327   19.884490   25.175259 H          1 MOL1         0.3650
       3    H2      20.597386   18.604940   26.162373 H          1 MOL1         0.3650
       4    C1      19.431533   18.579122   24.407754 C.3        1 MOL1         0.0209
       5    H3      18.949042   19.336502   23.785554 H          1 MOL1         0.0967
       6    H4      18.652275   17.947984   24.842421 H          1 MOL1         0.0967
       7    C2      20.369065   17.714164   23.540390 C.3        1 MOL1        -0.1378
       8    H5      20.824360   16.938749   24.170548 H          1 MOL1         0.0993
       9    H6      19.776041   17.175045   22.791787 H          1 MOL1         0.0993
      10    C3      21.490891   18.517305   22.834587 C.3        1 MOL1        -0.1338
      11    H7      22.079132   17.829506   22.211617 H          1 MOL1         0.0993
      12    H8      22.190052   18.893409   23.593459 H          1 MOL1         0.0993
      13    C4      21.020762   19.712882   21.961911 C.3        1 MOL1        -0.1338
      14    H9      20.488857   20.456280   22.570443 H          1 MOL1         0.0993
      15    H10     21.924069   20.225863   21.603581 H          1 MOL1         0.0993
      16    C5      20.175485   19.327133   20.719988 C.3        1 MOL1        -0.1313
      17    H11     20.500400   18.355150   20.323519 H          1 MOL1         0.0993
      18    H12     20.377846   20.058906   19.925278 H          1 MOL1         0.0993
      19    C6      18.650133   19.319680   20.975223 C.3        1 MOL1        -0.2328
      20    H13     18.108038   19.131146   20.039548 H          1 MOL1         0.1004
      21    H14     18.310858   20.287865   21.365618 H          1 MOL1         0.1004
      22    H15     18.352940   18.541826   21.685834 H          1 MOL1         0.1004
      23    C7      19.135076   20.128478   26.331016 C.3        1 MOL1        -0.0781
      24    H16     18.360812   19.474528   26.738163 H          1 MOL1         0.0978
      25    H17     19.655014   20.636481   27.146299 H          1 MOL1         0.0978
      26    H18     18.683415   20.866666   25.664700 H          1 MOL1         0.0978
@<TRIPOS>BOND
    1     1     2    1
    2     1     3    1
    3     1     4    1
    4     4     5    1
    5     4     6    1
    6     4     7    1
    7     7     8    1
    8     7     9    1
    9     7    10    1
   10    10    11    1
   11    10    12    1
   12    10    13    1
   13    13    14    1
   14    13    15    1
   15    13    16    1
   16    16    17    1
   17    16    18    1
   18    16    19    1
   19    19    20    1
   20    19    21    1
   21    19    22    1
   22     1    23    1
   23    23    24    1
   24    23    25    1
   25    23    26    1
@<TRIPOS>SUBSTRUCTURE
       1 MOL1            1 RESIDUE      1      MOL     
@<SCITEGIC>MOL_PROPERTY
VM2 Rank
SciTegic.value.IntegerValue
181

@<SCITEGIC>MOL_PROPERTY
Conf_Id
SciTegic.value.IntegerValue
249

@<SCITEGIC>MOL_PROPERTY
Probability
SciTegic.value.DoubleValue
0.00

@<SCITEGIC>MOL_PROPERTY
Sum Probability
SciTegic.value.DoubleValue
99.97

@<SCITEGIC>MOL_PROPERTY
Delta G
SciTegic.value.DoubleValue
4.477

@<SCITEGIC>MOL_PROPERTY
G
SciTegic.value.DoubleValue
79.943

@<SCITEGIC>MOL_PROPERTY
E
SciTegic.value.DoubleValue
46.915

@<SCITEGIC>MOL_PROPERTY
-TS
SciTegic.value.DoubleValue
33.028

@<SCITEGIC>MOL_PROPERTY
U+W
SciTegic.value.DoubleValue
25.453

@<SCITEGIC>MOL_PROPERTY
U
SciTegic.value.DoubleValue
75.077

@<SCITEGIC>MOL_PROPERTY
W
SciTegic.value.DoubleValue
-49.624

@<SCITEGIC>MOL_PROPERTY
W(PB)
SciTegic.value.DoubleValue
-51.822

@<SCITEGIC>MOL_PROPERTY
W(SA)
SciTegic.value.DoubleValue
2.198

@<SCITEGIC>MOL_PROPERTY
Valence
SciTegic.value.DoubleValue
5.122

@<SCITEGIC>MOL_PROPERTY
Coulomb
SciTegic.value.DoubleValue
70.113

@<SCITEGIC>MOL_PROPERTY
VdW
SciTegic.value.DoubleValue
-0.157

@<SCITEGIC>MOL_PROPERTY
VdW6
SciTegic.value.DoubleValue
-8.845

@<SCITEGIC>MOL_PROPERTY
VdW12
SciTegic.value.DoubleValue
8.687

@<SCITEGIC>MOL_PROPERTY
Bond
SciTegic.value.DoubleValue
0.261

@<SCITEGIC>MOL_PROPERTY
Angle
SciTegic.value.DoubleValue
1.747

@<SCITEGIC>MOL_PROPERTY
Pdih
SciTegic.value.DoubleValue
3.115

@<SCITEGIC>MOL_PROPERTY
Idih
SciTegic.value.DoubleValue
0.000

@<SCITEGIC>MOL_PROPERTY
Tether
SciTegic.value.DoubleValue
0.000

@<TRIPOS>MOLECULE
guest-s12_vm2.mol2 : vm2 ligand conformer 182
          26          25           1
SMALL
USER_CHARGES
 
@<TRIPOS>ATOM
       1    N1      19.766129   19.252439   25.533173 N.4        1 MOL1        -0.4857
       2    H1      19.414404   18.480617   26.120614 H          1 MOL1         0.3650
       3    H2      18.930019   19.678378   25.106024 H          1 MOL1         0.3650
       4    C1      20.679827   18.710224   24.451920 C.3        1 MOL1         0.0209
       5    H3      21.540775   18.251299   24.944532 H          1 MOL1         0.0967
       6    H4      21.036928   19.555807   23.859449 H          1 MOL1         0.0967
       7    C2      20.005069   17.676012   23.527504 C.3        1 MOL1        -0.1378
       8    H5      20.747869   17.277139   22.826162 H          1 MOL1         0.0993
       9    H6      19.677594   16.818416   24.129956 H          1 MOL1         0.0993
      10    C3      18.793213   18.234186   22.739135 C.3        1 MOL1        -0.1338
      11    H7      17.979969   18.451589   23.444500 H          1 MOL1         0.0993
      12    H8      18.405394   17.443917   22.081671 H          1 MOL1         0.0993
      13    C4      19.065036   19.507593   21.892651 C.3        1 MOL1        -0.1338
      14    H9      18.102304   19.824702   21.468264 H          1 MOL1         0.0993
      15    H10     19.387341   20.340675   22.531373 H          1 MOL1         0.0993
      16    C5      20.056661   19.314576   20.715749 C.3        1 MOL1        -0.1313
      17    H11     19.762984   19.994193   19.903419 H          1 MOL1         0.0993
      18    H12     19.968963   18.299233   20.304777 H          1 MOL1         0.0993
      19    C6      21.528722   19.621848   21.077029 C.3        1 MOL1        -0.2328
      20    H13     21.930355   18.917466   21.812477 H          1 MOL1         0.1004
      21    H14     21.631650   20.636515   21.482927 H          1 MOL1         0.1004
      22    H15     22.162211   19.556601   20.182973 H          1 MOL1         0.1004
      23    C7      20.513344   20.273123   26.379840 C.3        1 MOL1        -0.0781
      24    H16     19.843721   20.656127   27.153146 H          1 MOL1         0.0978
      25    H17     21.376118   19.791071   26.844758 H          1 MOL1         0.0978
      26    H18     20.847361   21.093879   25.741334 H          1 MOL1         0.0978
@<TRIPOS>BOND
    1     1     2    1
    2     1     3    1
    3     1     4    1
    4     4     5    1
    5     4     6    1
    6     4     7    1
    7     7     8    1
    8     7     9    1
    9     7    10    1
   10    10    11    1
   11    10    12    1
   12    10    13    1
   13    13    14    1
   14    13    15    1
   15    13    16    1
   16    16    17    1
   17    16    18    1
   18    16    19    1
   19    19    20    1
   20    19    21    1
   21    19    22    1
   22     1    23    1
   23    23    24    1
   24    23    25    1
   25    23    26    1
@<TRIPOS>SUBSTRUCTURE
       1 MOL1            1 RESIDUE      1      MOL     
@<SCITEGIC>MOL_PROPERTY
VM2 Rank
SciTegic.value.IntegerValue
182

@<SCITEGIC>MOL_PROPERTY
Conf_Id
SciTegic.value.IntegerValue
1098

@<SCITEGIC>MOL_PROPERTY
Probability
SciTegic.value.DoubleValue
0.00

@<SCITEGIC>MOL_PROPERTY
Sum Probability
SciTegic.value.DoubleValue
99.97

@<SCITEGIC>MOL_PROPERTY
Delta G
SciTegic.value.DoubleValue
4.534

@<SCITEGIC>MOL_PROPERTY
G
SciTegic.value.DoubleValue
80.000

@<SCITEGIC>MOL_PROPERTY
E
SciTegic.value.DoubleValue
46.972

@<SCITEGIC>MOL_PROPERTY
-TS
SciTegic.value.DoubleValue
33.028

@<SCITEGIC>MOL_PROPERTY
U+W
SciTegic.value.DoubleValue
25.510

@<SCITEGIC>MOL_PROPERTY
U
SciTegic.value.DoubleValue
75.077

@<SCITEGIC>MOL_PROPERTY
W
SciTegic.value.DoubleValue
-49.567

@<SCITEGIC>MOL_PROPERTY
W(PB)
SciTegic.value.DoubleValue
-51.764

@<SCITEGIC>MOL_PROPERTY
W(SA)
SciTegic.value.DoubleValue
2.197

@<SCITEGIC>MOL_PROPERTY
Valence
SciTegic.value.DoubleValue
5.122

@<SCITEGIC>MOL_PROPERTY
Coulomb
SciTegic.value.DoubleValue
70.112

@<SCITEGIC>MOL_PROPERTY
VdW
SciTegic.value.DoubleValue
-0.157

@<SCITEGIC>MOL_PROPERTY
VdW6
SciTegic.value.DoubleValue
-8.844

@<SCITEGIC>MOL_PROPERTY
VdW12
SciTegic.value.DoubleValue
8.687

@<SCITEGIC>MOL_PROPERTY
Bond
SciTegic.value.DoubleValue
0.261

@<SCITEGIC>MOL_PROPERTY
Angle
SciTegic.value.DoubleValue
1.746

@<SCITEGIC>MOL_PROPERTY
Pdih
SciTegic.value.DoubleValue
3.115

@<SCITEGIC>MOL_PROPERTY
Idih
SciTegic.value.DoubleValue
0.000

@<SCITEGIC>MOL_PROPERTY
Tether
SciTegic.value.DoubleValue
0.000

@<TRIPOS>MOLECULE
guest-s12_vm2.mol2 : vm2 ligand conformer 183
          26          25           1
SMALL
USER_CHARGES
 
@<TRIPOS>ATOM
       1    N1      20.529887   19.146742   25.355392 N.4        1 MOL1        -0.4857
       2    H1      21.344961   18.890634   24.779253 H          1 MOL1         0.3650
       3    H2      20.439953   18.394569   26.056010 H          1 MOL1         0.3650
       4    C1      19.281664   19.210583   24.496560 C.3        1 MOL1         0.0209
       5    H3      19.396983   20.041228   23.798932 H          1 MOL1         0.0967
       6    H4      18.441958   19.437986   25.158165 H          1 MOL1         0.0967
       7    C2      18.986745   17.904949   23.729012 C.3        1 MOL1        -0.1378
       8    H5      18.939269   17.083542   24.456276 H          1 MOL1         0.0993
       9    H6      17.986677   17.965436   23.279840 H          1 MOL1         0.0993
      10    C3      20.028884   17.551787   22.633737 C.3        1 MOL1        -0.1338
      11    H7      20.000748   16.463366   22.485684 H          1 MOL1         0.0993
      12    H8      21.048052   17.768397   22.977020 H          1 MOL1         0.0993
      13    C4      19.769257   18.208301   21.250488 C.3        1 MOL1        -0.1338
      14    H9      20.495742   17.803891   20.532187 H          1 MOL1         0.0993
      15    H10     18.783556   17.888541   20.885322 H          1 MOL1         0.0993
      16    C5      19.838513   19.754938   21.200782 C.3        1 MOL1        -0.1313
      17    H11     19.044012   20.192255   21.818375 H          1 MOL1         0.0993
      18    H12     19.622424   20.077785   20.172748 H          1 MOL1         0.0993
      19    C6      21.215013   20.324215   21.614026 C.3        1 MOL1        -0.2328
      20    H13     22.016803   19.902182   20.994405 H          1 MOL1         0.1004
      21    H14     21.446001   20.109496   22.663389 H          1 MOL1         0.1004
      22    H15     21.233362   21.414456   21.488087 H          1 MOL1         0.1004
      23    C7      20.758036   20.488486   26.037003 C.3        1 MOL1        -0.0781
      24    H16     21.658702   20.429343   26.652140 H          1 MOL1         0.0978
      25    H17     20.881169   21.261824   25.275610 H          1 MOL1         0.0978
      26    H18     19.896467   20.722400   26.666200 H          1 MOL1         0.0978
@<TRIPOS>BOND
    1     1     2    1
    2     1     3    1
    3     1     4    1
    4     4     5    1
    5     4     6    1
    6     4     7    1
    7     7     8    1
    8     7     9    1
    9     7    10    1
   10    10    11    1
   11    10    12    1
   12    10    13    1
   13    13    14    1
   14    13    15    1
   15    13    16    1
   16    16    17    1
   17    16    18    1
   18    16    19    1
   19    19    20    1
   20    19    21    1
   21    19    22    1
   22     1    23    1
   23    23    24    1
   24    23    25    1
   25    23    26    1
@<TRIPOS>SUBSTRUCTURE
       1 MOL1            1 RESIDUE      1      MOL     
@<SCITEGIC>MOL_PROPERTY
VM2 Rank
SciTegic.value.IntegerValue
183

@<SCITEGIC>MOL_PROPERTY
Conf_Id
SciTegic.value.IntegerValue
854

@<SCITEGIC>MOL_PROPERTY
Probability
SciTegic.value.DoubleValue
0.00

@<SCITEGIC>MOL_PROPERTY
Sum Probability
SciTegic.value.DoubleValue
99.98

@<SCITEGIC>MOL_PROPERTY
Delta G
SciTegic.value.DoubleValue
4.582

@<SCITEGIC>MOL_PROPERTY
G
SciTegic.value.DoubleValue
80.048

@<SCITEGIC>MOL_PROPERTY
E
SciTegic.value.DoubleValue
46.787

@<SCITEGIC>MOL_PROPERTY
-TS
SciTegic.value.DoubleValue
33.262

@<SCITEGIC>MOL_PROPERTY
U+W
SciTegic.value.DoubleValue
25.325

@<SCITEGIC>MOL_PROPERTY
U
SciTegic.value.DoubleValue
75.173

@<SCITEGIC>MOL_PROPERTY
W
SciTegic.value.DoubleValue
-49.848

@<SCITEGIC>MOL_PROPERTY
W(PB)
SciTegic.value.DoubleValue
-52.020

@<SCITEGIC>MOL_PROPERTY
W(SA)
SciTegic.value.DoubleValue
2.172

@<SCITEGIC>MOL_PROPERTY
Valence
SciTegic.value.DoubleValue
4.878

@<SCITEGIC>MOL_PROPERTY
Coulomb
SciTegic.value.DoubleValue
70.674

@<SCITEGIC>MOL_PROPERTY
VdW
SciTegic.value.DoubleValue
-0.379

@<SCITEGIC>MOL_PROPERTY
VdW6
SciTegic.value.DoubleValue
-9.130

@<SCITEGIC>MOL_PROPERTY
VdW12
SciTegic.value.DoubleValue
8.751

@<SCITEGIC>MOL_PROPERTY
Bond
SciTegic.value.DoubleValue
0.264

@<SCITEGIC>MOL_PROPERTY
Angle
SciTegic.value.DoubleValue
1.818

@<SCITEGIC>MOL_PROPERTY
Pdih
SciTegic.value.DoubleValue
2.796

@<SCITEGIC>MOL_PROPERTY
Idih
SciTegic.value.DoubleValue
0.000

@<SCITEGIC>MOL_PROPERTY
Tether
SciTegic.value.DoubleValue
0.000

@<TRIPOS>MOLECULE
guest-s12_vm2.mol2 : vm2 ligand conformer 184
          26          25           1
SMALL
USER_CHARGES
 
@<TRIPOS>ATOM
       1    N1      19.234756   19.351681   25.176351 N.4        1 MOL1        -0.4857
       2    H1      18.549465   19.117829   25.912296 H          1 MOL1         0.3650
       3    H2      18.693834   19.394371   24.300993 H          1 MOL1         0.3650
       4    C1      20.281289   18.253775   25.088019 C.3        1 MOL1         0.0209
       5    H3      19.764181   17.292357   25.140055 H          1 MOL1         0.0967
       6    H4      20.911864   18.342230   25.976266 H          1 MOL1         0.0967
       7    C2      21.170706   18.279171   23.823961 C.3        1 MOL1        -0.1378
       8    H5      21.523503   19.296681   23.616666 H          1 MOL1         0.0993
       9    H6      22.073900   17.696185   24.047124 H          1 MOL1         0.0993
      10    C3      20.508720   17.654551   22.566722 C.3        1 MOL1        -0.1338
      11    H7      20.224283   16.618340   22.796103 H          1 MOL1         0.0993
      12    H8      21.264284   17.578859   21.773452 H          1 MOL1         0.0993
      13    C4      19.264662   18.396449   22.009011 C.3        1 MOL1        -0.1338
      14    H9      18.915495   17.860338   21.115656 H          1 MOL1         0.0993
      15    H10     18.438542   18.323466   22.726851 H          1 MOL1         0.0993
      16    C5      19.495531   19.882289   21.631131 C.3        1 MOL1        -0.1313
      17    H11     19.768006   20.468030   22.517732 H          1 MOL1         0.0993
      18    H12     18.546898   20.303960   21.270388 H          1 MOL1         0.0993
      19    C6      20.571063   20.074519   20.538230 C.3        1 MOL1        -0.2328
      20    H13     21.563603   19.770070   20.892887 H          1 MOL1         0.1004
      21    H14     20.635185   21.129757   20.242927 H          1 MOL1         0.1004
      22    H15     20.331658   19.488964   19.641158 H          1 MOL1         0.1004
      23    C7      19.881273   20.697564   25.483573 C.3        1 MOL1        -0.0781
      24    H16     20.575234   20.958496   24.682335 H          1 MOL1         0.0978
      25    H17     19.102302   21.459550   25.558584 H          1 MOL1         0.0978
      26    H18     20.420166   20.627600   26.430939 H          1 MOL1         0.0978
@<TRIPOS>BOND
    1     1     2    1
    2     1     3    1
    3     1     4    1
    4     4     5    1
    5     4     6    1
    6     4     7    1
    7     7     8    1
    8     7     9    1
    9     7    10    1
   10    10    11    1
   11    10    12    1
   12    10    13    1
   13    13    14    1
   14    13    15    1
   15    13    16    1
   16    16    17    1
   17    16    18    1
   18    16    19    1
   19    19    20    1
   20    19    21    1
   21    19    22    1
   22     1    23    1
   23    23    24    1
   24    23    25    1
   25    23    26    1
@<TRIPOS>SUBSTRUCTURE
       1 MOL1            1 RESIDUE      1      MOL     
@<SCITEGIC>MOL_PROPERTY
VM2 Rank
SciTegic.value.IntegerValue
184

@<SCITEGIC>MOL_PROPERTY
Conf_Id
SciTegic.value.IntegerValue
241

@<SCITEGIC>MOL_PROPERTY
Probability
SciTegic.value.DoubleValue
0.00

@<SCITEGIC>MOL_PROPERTY
Sum Probability
SciTegic.value.DoubleValue
99.98

@<SCITEGIC>MOL_PROPERTY
Delta G
SciTegic.value.DoubleValue
4.864

@<SCITEGIC>MOL_PROPERTY
G
SciTegic.value.DoubleValue
80.330

@<SCITEGIC>MOL_PROPERTY
E
SciTegic.value.DoubleValue
46.801

@<SCITEGIC>MOL_PROPERTY
-TS
SciTegic.value.DoubleValue
33.529

@<SCITEGIC>MOL_PROPERTY
U+W
SciTegic.value.DoubleValue
25.339

@<SCITEGIC>MOL_PROPERTY
U
SciTegic.value.DoubleValue
75.477

@<SCITEGIC>MOL_PROPERTY
W
SciTegic.value.DoubleValue
-50.138

@<SCITEGIC>MOL_PROPERTY
W(PB)
SciTegic.value.DoubleValue
-52.291

@<SCITEGIC>MOL_PROPERTY
W(SA)
SciTegic.value.DoubleValue
2.153

@<SCITEGIC>MOL_PROPERTY
Valence
SciTegic.value.DoubleValue
4.696

@<SCITEGIC>MOL_PROPERTY
Coulomb
SciTegic.value.DoubleValue
71.028

@<SCITEGIC>MOL_PROPERTY
VdW
SciTegic.value.DoubleValue
-0.247

@<SCITEGIC>MOL_PROPERTY
VdW6
SciTegic.value.DoubleValue
-10.025

@<SCITEGIC>MOL_PROPERTY
VdW12
SciTegic.value.DoubleValue
9.778

@<SCITEGIC>MOL_PROPERTY
Bond
SciTegic.value.DoubleValue
0.299

@<SCITEGIC>MOL_PROPERTY
Angle
SciTegic.value.DoubleValue
1.907

@<SCITEGIC>MOL_PROPERTY
Pdih
SciTegic.value.DoubleValue
2.490

@<SCITEGIC>MOL_PROPERTY
Idih
SciTegic.value.DoubleValue
0.000

@<SCITEGIC>MOL_PROPERTY
Tether
SciTegic.value.DoubleValue
0.000

@<TRIPOS>MOLECULE
guest-s12_vm2.mol2 : vm2 ligand conformer 185
          26          25           1
SMALL
USER_CHARGES
 
@<TRIPOS>ATOM
       1    N1      19.483080   18.287084   24.912060 N.4        1 MOL1        -0.4857
       2    H1      19.452798   17.417307   25.467554 H          1 MOL1         0.3650
       3    H2      19.394857   17.990300   23.929396 H          1 MOL1         0.3650
       4    C1      20.817109   18.982895   25.127167 C.3        1 MOL1         0.0209
       5    H3      21.602015   18.223108   25.093937 H          1 MOL1         0.0967
       6    H4      20.799417   19.401290   26.136664 H          1 MOL1         0.0967
       7    C2      21.154865   20.101057   24.114508 C.3        1 MOL1        -0.1378
       8    H5      20.284709   20.747056   23.946498 H          1 MOL1         0.0993
       9    H6      21.912385   20.747204   24.577313 H          1 MOL1         0.0993
      10    C3      21.733673   19.590333   22.767456 C.3        1 MOL1        -0.1338
      11    H7      22.669666   19.050895   22.968308 H          1 MOL1         0.0993
      12    H8      22.016727   20.458960   22.156977 H          1 MOL1         0.0993
      13    C4      20.806821   18.674571   21.927688 C.3        1 MOL1        -0.1338
      14    H9      21.349766   18.379395   21.019011 H          1 MOL1         0.0993
      15    H10     20.609927   17.739702   22.466431 H          1 MOL1         0.0993
      16    C5      19.478410   19.349644   21.510589 C.3        1 MOL1        -0.1313
      17    H11     19.694158   20.267646   20.946153 H          1 MOL1         0.0993
      18    H12     18.903992   19.653934   22.394250 H          1 MOL1         0.0993
      19    C6      18.609807   18.410891   20.646655 C.3        1 MOL1        -0.2328
      20    H13     19.135882   18.120420   19.727892 H          1 MOL1         0.1004
      21    H14     17.674813   18.907023   20.355597 H          1 MOL1         0.1004
      22    H15     18.348710   17.496108   21.194319 H          1 MOL1         0.1004
      23    C7      18.324234   19.193526   25.310876 C.3        1 MOL1        -0.0781
      24    H16     18.430216   19.467985   26.362657 H          1 MOL1         0.0978
      25    H17     18.336257   20.092296   24.691448 H          1 MOL1         0.0978
      26    H18     17.384036   18.657548   25.163195 H          1 MOL1         0.0978
@<TRIPOS>BOND
    1     1     2    1
    2     1     3    1
    3     1     4    1
    4     4     5    1
    5     4     6    1
    6     4     7    1
    7     7     8    1
    8     7     9    1
    9     7    10    1
   10    10    11    1
   11    10    12    1
   12    10    13    1
   13    13    14    1
   14    13    15    1
   15    13    16    1
   16    16    17    1
   17    16    18    1
   18    16    19    1
   19    19    20    1
   20    19    21    1
   21    19    22    1
   22     1    23    1
   23    23    24    1
   24    23    25    1
   25    23    26    1
@<TRIPOS>SUBSTRUCTURE
       1 MOL1            1 RESIDUE      1      MOL     
@<SCITEGIC>MOL_PROPERTY
VM2 Rank
SciTegic.value.IntegerValue
185

@<SCITEGIC>MOL_PROPERTY
Conf_Id
SciTegic.value.IntegerValue
448

@<SCITEGIC>MOL_PROPERTY
Probability
SciTegic.value.DoubleValue
0.00

@<SCITEGIC>MOL_PROPERTY
Sum Probability
SciTegic.value.DoubleValue
99.98

@<SCITEGIC>MOL_PROPERTY
Delta G
SciTegic.value.DoubleValue
4.875

@<SCITEGIC>MOL_PROPERTY
G
SciTegic.value.DoubleValue
80.341

@<SCITEGIC>MOL_PROPERTY
E
SciTegic.value.DoubleValue
47.028

@<SCITEGIC>MOL_PROPERTY
-TS
SciTegic.value.DoubleValue
33.313

@<SCITEGIC>MOL_PROPERTY
U+W
SciTegic.value.DoubleValue
25.566

@<SCITEGIC>MOL_PROPERTY
U
SciTegic.value.DoubleValue
74.993

@<SCITEGIC>MOL_PROPERTY
W
SciTegic.value.DoubleValue
-49.427

@<SCITEGIC>MOL_PROPERTY
W(PB)
SciTegic.value.DoubleValue
-51.599

@<SCITEGIC>MOL_PROPERTY
W(SA)
SciTegic.value.DoubleValue
2.172

@<SCITEGIC>MOL_PROPERTY
Valence
SciTegic.value.DoubleValue
4.235

@<SCITEGIC>MOL_PROPERTY
Coulomb
SciTegic.value.DoubleValue
71.017

@<SCITEGIC>MOL_PROPERTY
VdW
SciTegic.value.DoubleValue
-0.259

@<SCITEGIC>MOL_PROPERTY
VdW6
SciTegic.value.DoubleValue
-9.385

@<SCITEGIC>MOL_PROPERTY
VdW12
SciTegic.value.DoubleValue
9.126

@<SCITEGIC>MOL_PROPERTY
Bond
SciTegic.value.DoubleValue
0.262

@<SCITEGIC>MOL_PROPERTY
Angle
SciTegic.value.DoubleValue
1.598

@<SCITEGIC>MOL_PROPERTY
Pdih
SciTegic.value.DoubleValue
2.376

@<SCITEGIC>MOL_PROPERTY
Idih
SciTegic.value.DoubleValue
0.000

@<SCITEGIC>MOL_PROPERTY
Tether
SciTegic.value.DoubleValue
0.000

@<TRIPOS>MOLECULE
guest-s12_vm2.mol2 : vm2 ligand conformer 186
          26          25           1
SMALL
USER_CHARGES
 
@<TRIPOS>ATOM
       1    N1      20.650410   18.405819   24.953511 N.4        1 MOL1        -0.4857
       2    H1      20.865110   18.139711   23.981612 H          1 MOL1         0.3650
       3    H2      20.815973   17.556038   25.516065 H          1 MOL1         0.3650
       4    C1      19.192002   18.817660   25.069647 C.3        1 MOL1         0.0209
       5    H3      19.054460   19.223961   26.074860 H          1 MOL1         0.0967
       6    H4      18.580182   17.915824   24.987021 H          1 MOL1         0.0967
       7    C2      18.708094   19.852169   24.027790 C.3        1 MOL1        -0.1378
       8    H5      17.805596   20.329511   24.431734 H          1 MOL1         0.0993
       9    H6      19.440159   20.661123   23.916487 H          1 MOL1         0.0993
      10    C3      18.339628   19.244984   22.647225 C.3        1 MOL1        -0.1338
      11    H7      17.931060   20.043201   22.012215 H          1 MOL1         0.0993
      12    H8      17.519579   18.526860   22.785923 H          1 MOL1         0.0993
      13    C4      19.488238   18.540388   21.880986 C.3        1 MOL1        -0.1338
      14    H9      19.830939   17.660424   22.438851 H          1 MOL1         0.0993
      15    H10     19.080770   18.148507   20.938643 H          1 MOL1         0.0993
      16    C5      20.679583   19.471833   21.553146 C.3        1 MOL1        -0.1313
      17    H11     21.117767   19.879093   22.472679 H          1 MOL1         0.0993
      18    H12     20.323648   20.331704   20.968515 H          1 MOL1         0.0993
      19    C6      21.777551   18.733192   20.758802 C.3        1 MOL1        -0.2328
      20    H13     22.178303   17.885701   21.329848 H          1 MOL1         0.1004
      21    H14     22.611687   19.409312   20.530434 H          1 MOL1         0.1004
      22    H15     21.386282   18.349462   19.807532 H          1 MOL1         0.1004
      23    C7      21.572494   19.523955   25.425894 C.3        1 MOL1        -0.0781
      24    H16     21.340046   19.764180   26.465635 H          1 MOL1         0.0978
      25    H17     22.609244   19.189006   25.348350 H          1 MOL1         0.0978
      26    H18     21.423457   20.406239   24.800605 H          1 MOL1         0.0978
@<TRIPOS>BOND
    1     1     2    1
    2     1     3    1
    3     1     4    1
    4     4     5    1
    5     4     6    1
    6     4     7    1
    7     7     8    1
    8     7     9    1
    9     7    10    1
   10    10    11    1
   11    10    12    1
   12    10    13    1
   13    13    14    1
   14    13    15    1
   15    13    16    1
   16    16    17    1
   17    16    18    1
   18    16    19    1
   19    19    20    1
   20    19    21    1
   21    19    22    1
   22     1    23    1
   23    23    24    1
   24    23    25    1
   25    23    26    1
@<TRIPOS>SUBSTRUCTURE
       1 MOL1            1 RESIDUE      1      MOL     
@<SCITEGIC>MOL_PROPERTY
VM2 Rank
SciTegic.value.IntegerValue
186

@<SCITEGIC>MOL_PROPERTY
Conf_Id
SciTegic.value.IntegerValue
1868

@<SCITEGIC>MOL_PROPERTY
Probability
SciTegic.value.DoubleValue
0.00

@<SCITEGIC>MOL_PROPERTY
Sum Probability
SciTegic.value.DoubleValue
99.98

@<SCITEGIC>MOL_PROPERTY
Delta G
SciTegic.value.DoubleValue
4.879

@<SCITEGIC>MOL_PROPERTY
G
SciTegic.value.DoubleValue
80.345

@<SCITEGIC>MOL_PROPERTY
E
SciTegic.value.DoubleValue
47.032

@<SCITEGIC>MOL_PROPERTY
-TS
SciTegic.value.DoubleValue
33.313

@<SCITEGIC>MOL_PROPERTY
U+W
SciTegic.value.DoubleValue
25.571

@<SCITEGIC>MOL_PROPERTY
U
SciTegic.value.DoubleValue
74.993

@<SCITEGIC>MOL_PROPERTY
W
SciTegic.value.DoubleValue
-49.423

@<SCITEGIC>MOL_PROPERTY
W(PB)
SciTegic.value.DoubleValue
-51.583

@<SCITEGIC>MOL_PROPERTY
W(SA)
SciTegic.value.DoubleValue
2.161

@<SCITEGIC>MOL_PROPERTY
Valence
SciTegic.value.DoubleValue
4.235

@<SCITEGIC>MOL_PROPERTY
Coulomb
SciTegic.value.DoubleValue
71.017

@<SCITEGIC>MOL_PROPERTY
VdW
SciTegic.value.DoubleValue
-0.259

@<SCITEGIC>MOL_PROPERTY
VdW6
SciTegic.value.DoubleValue
-9.385

@<SCITEGIC>MOL_PROPERTY
VdW12
SciTegic.value.DoubleValue
9.126

@<SCITEGIC>MOL_PROPERTY
Bond
SciTegic.value.DoubleValue
0.262

@<SCITEGIC>MOL_PROPERTY
Angle
SciTegic.value.DoubleValue
1.598

@<SCITEGIC>MOL_PROPERTY
Pdih
SciTegic.value.DoubleValue
2.376

@<SCITEGIC>MOL_PROPERTY
Idih
SciTegic.value.DoubleValue
0.000

@<SCITEGIC>MOL_PROPERTY
Tether
SciTegic.value.DoubleValue
0.000

@<TRIPOS>MOLECULE
guest-s12_vm2.mol2 : vm2 ligand conformer 187
          26          25           1
SMALL
USER_CHARGES
 
@<TRIPOS>ATOM
       1    N1      20.656850   19.503264   25.226473 N.4        1 MOL1        -0.4857
       2    H1      21.236324   19.665324   24.390639 H          1 MOL1         0.3650
       3    H2      21.323013   19.413492   26.010112 H          1 MOL1         0.3650
       4    C1      19.873654   18.210332   25.073625 C.3        1 MOL1         0.0209
       5    H3      19.178216   18.157500   25.915058 H          1 MOL1         0.0967
       6    H4      20.576650   17.378964   25.168783 H          1 MOL1         0.0967
       7    C2      19.089196   18.057247   23.750470 C.3        1 MOL1        -0.1378
       8    H5      18.315705   17.295498   23.914442 H          1 MOL1         0.0993
       9    H6      18.545382   18.979162   23.511508 H          1 MOL1         0.0993
      10    C3      19.953897   17.595385   22.547140 C.3        1 MOL1        -0.1338
      11    H7      19.288414   17.368207   21.703690 H          1 MOL1         0.0993
      12    H8      20.433426   16.640614   22.803494 H          1 MOL1         0.0993
      13    C4      21.049661   18.586713   22.072046 C.3        1 MOL1        -0.1338
      14    H9      21.820536   18.683935   22.846251 H          1 MOL1         0.0993
      15    H10     21.565278   18.142808   21.209200 H          1 MOL1         0.0993
      16    C5      20.538071   19.993424   21.667998 C.3        1 MOL1        -0.1313
      17    H11     21.399449   20.608020   21.371099 H          1 MOL1         0.0993
      18    H12     20.087311   20.502069   22.529095 H          1 MOL1         0.0993
      19    C6      19.524977   19.963051   20.501435 C.3        1 MOL1        -0.2328
      20    H13     19.944208   19.447768   19.627562 H          1 MOL1         0.1004
      21    H14     19.260815   20.983307   20.194619 H          1 MOL1         0.1004
      22    H15     18.596563   19.453782   20.788316 H          1 MOL1         0.1004
      23    C7      19.721695   20.680585   25.477813 C.3        1 MOL1        -0.0781
      24    H16     19.144948   20.491788   26.385845 H          1 MOL1         0.0978
      25    H17     20.315643   21.588909   25.601174 H          1 MOL1         0.0978
      26    H18     19.045895   20.795460   24.628253 H          1 MOL1         0.0978
@<TRIPOS>BOND
    1     1     2    1
    2     1     3    1
    3     1     4    1
    4     4     5    1
    5     4     6    1
    6     4     7    1
    7     7     8    1
    8     7     9    1
    9     7    10    1
   10    10    11    1
   11    10    12    1
   12    10    13    1
   13    13    14    1
   14    13    15    1
   15    13    16    1
   16    16    17    1
   17    16    18    1
   18    16    19    1
   19    19    20    1
   20    19    21    1
   21    19    22    1
   22     1    23    1
   23    23    24    1
   24    23    25    1
   25    23    26    1
@<TRIPOS>SUBSTRUCTURE
       1 MOL1            1 RESIDUE      1      MOL     
@<SCITEGIC>MOL_PROPERTY
VM2 Rank
SciTegic.value.IntegerValue
187

@<SCITEGIC>MOL_PROPERTY
Conf_Id
SciTegic.value.IntegerValue
801

@<SCITEGIC>MOL_PROPERTY
Probability
SciTegic.value.DoubleValue
0.00

@<SCITEGIC>MOL_PROPERTY
Sum Probability
SciTegic.value.DoubleValue
99.98

@<SCITEGIC>MOL_PROPERTY
Delta G
SciTegic.value.DoubleValue
4.885

@<SCITEGIC>MOL_PROPERTY
G
SciTegic.value.DoubleValue
80.351

@<SCITEGIC>MOL_PROPERTY
E
SciTegic.value.DoubleValue
46.821

@<SCITEGIC>MOL_PROPERTY
-TS
SciTegic.value.DoubleValue
33.530

@<SCITEGIC>MOL_PROPERTY
U+W
SciTegic.value.DoubleValue
25.359

@<SCITEGIC>MOL_PROPERTY
U
SciTegic.value.DoubleValue
75.477

@<SCITEGIC>MOL_PROPERTY
W
SciTegic.value.DoubleValue
-50.118

@<SCITEGIC>MOL_PROPERTY
W(PB)
SciTegic.value.DoubleValue
-52.268

@<SCITEGIC>MOL_PROPERTY
W(SA)
SciTegic.value.DoubleValue
2.150

@<SCITEGIC>MOL_PROPERTY
Valence
SciTegic.value.DoubleValue
4.696

@<SCITEGIC>MOL_PROPERTY
Coulomb
SciTegic.value.DoubleValue
71.029

@<SCITEGIC>MOL_PROPERTY
VdW
SciTegic.value.DoubleValue
-0.247

@<SCITEGIC>MOL_PROPERTY
VdW6
SciTegic.value.DoubleValue
-10.026

@<SCITEGIC>MOL_PROPERTY
VdW12
SciTegic.value.DoubleValue
9.779

@<SCITEGIC>MOL_PROPERTY
Bond
SciTegic.value.DoubleValue
0.299

@<SCITEGIC>MOL_PROPERTY
Angle
SciTegic.value.DoubleValue
1.907

@<SCITEGIC>MOL_PROPERTY
Pdih
SciTegic.value.DoubleValue
2.490

@<SCITEGIC>MOL_PROPERTY
Idih
SciTegic.value.DoubleValue
0.000

@<SCITEGIC>MOL_PROPERTY
Tether
SciTegic.value.DoubleValue
0.000

@<TRIPOS>MOLECULE
guest-s12_vm2.mol2 : vm2 ligand conformer 188
          26          25           1
SMALL
USER_CHARGES
 
@<TRIPOS>ATOM
       1    N1      20.677919   18.667966   25.506598 N.4        1 MOL1        -0.4857
       2    H1      20.959759   17.884940   24.898580 H          1 MOL1         0.3650
       3    H2      20.975488   18.391046   26.455475 H          1 MOL1         0.3650
       4    C1      19.168324   18.837247   25.482662 C.3        1 MOL1         0.0209
       5    H3      18.939525   19.874953   25.737782 H          1 MOL1         0.0967
       6    H4      18.771277   18.206630   26.282255 H          1 MOL1         0.0967
       7    C2      18.454659   18.441037   24.168242 C.3        1 MOL1        -0.1378
       8    H5      18.617585   17.375725   23.958122 H          1 MOL1         0.0993
       9    H6      17.376039   18.546363   24.345129 H          1 MOL1         0.0993
      10    C3      18.824920   19.299546   22.932018 C.3        1 MOL1        -0.1338
      11    H7      19.042952   20.330201   23.243368 H          1 MOL1         0.0993
      12    H8      17.945330   19.362235   22.276343 H          1 MOL1         0.0993
      13    C4      19.998057   18.715585   22.106774 C.3        1 MOL1        -0.1338
      14    H9      20.881621   18.572990   22.739249 H          1 MOL1         0.0993
      15    H10     19.719484   17.720582   21.732941 H          1 MOL1         0.0993
      16    C5      20.368317   19.624675   20.913955 C.3        1 MOL1        -0.1313
      17    H11     20.646167   20.622905   21.280354 H          1 MOL1         0.0993
      18    H12     19.492818   19.758597   20.263159 H          1 MOL1         0.0993
      19    C6      21.534909   19.039913   20.089433 C.3        1 MOL1        -0.2328
      20    H13     21.782769   19.698812   19.247162 H          1 MOL1         0.1004
      21    H14     21.274858   18.054707   19.680867 H          1 MOL1         0.1004
      22    H15     22.436624   18.927422   20.705422 H          1 MOL1         0.1004
      23    C7      21.380895   19.964031   25.117318 C.3        1 MOL1        -0.0781
      24    H16     21.097509   20.749387   25.821374 H          1 MOL1         0.0978
      25    H17     22.461516   19.809435   25.154412 H          1 MOL1         0.0978
      26    H18     21.084672   20.251341   24.107198 H          1 MOL1         0.0978
@<TRIPOS>BOND
    1     1     2    1
    2     1     3    1
    3     1     4    1
    4     4     5    1
    5     4     6    1
    6     4     7    1
    7     7     8    1
    8     7     9    1
    9     7    10    1
   10    10    11    1
   11    10    12    1
   12    10    13    1
   13    13    14    1
   14    13    15    1
   15    13    16    1
   16    16    17    1
   17    16    18    1
   18    16    19    1
   19    19    20    1
   20    19    21    1
   21    19    22    1
   22     1    23    1
   23    23    24    1
   24    23    25    1
   25    23    26    1
@<TRIPOS>SUBSTRUCTURE
       1 MOL1            1 RESIDUE      1      MOL     
@<SCITEGIC>MOL_PROPERTY
VM2 Rank
SciTegic.value.IntegerValue
188

@<SCITEGIC>MOL_PROPERTY
Conf_Id
SciTegic.value.IntegerValue
1342

@<SCITEGIC>MOL_PROPERTY
Probability
SciTegic.value.DoubleValue
0.00

@<SCITEGIC>MOL_PROPERTY
Sum Probability
SciTegic.value.DoubleValue
99.99

@<SCITEGIC>MOL_PROPERTY
Delta G
SciTegic.value.DoubleValue
4.892

@<SCITEGIC>MOL_PROPERTY
G
SciTegic.value.DoubleValue
80.358

@<SCITEGIC>MOL_PROPERTY
E
SciTegic.value.DoubleValue
47.447

@<SCITEGIC>MOL_PROPERTY
-TS
SciTegic.value.DoubleValue
32.911

@<SCITEGIC>MOL_PROPERTY
U+W
SciTegic.value.DoubleValue
25.985

@<SCITEGIC>MOL_PROPERTY
U
SciTegic.value.DoubleValue
76.026

@<SCITEGIC>MOL_PROPERTY
W
SciTegic.value.DoubleValue
-50.041

@<SCITEGIC>MOL_PROPERTY
W(PB)
SciTegic.value.DoubleValue
-52.258

@<SCITEGIC>MOL_PROPERTY
W(SA)
SciTegic.value.DoubleValue
2.217

@<SCITEGIC>MOL_PROPERTY
Valence
SciTegic.value.DoubleValue
5.957

@<SCITEGIC>MOL_PROPERTY
Coulomb
SciTegic.value.DoubleValue
70.111

@<SCITEGIC>MOL_PROPERTY
VdW
SciTegic.value.DoubleValue
-0.042

@<SCITEGIC>MOL_PROPERTY
VdW6
SciTegic.value.DoubleValue
-8.365

@<SCITEGIC>MOL_PROPERTY
VdW12
SciTegic.value.DoubleValue
8.323

@<SCITEGIC>MOL_PROPERTY
Bond
SciTegic.value.DoubleValue
0.228

@<SCITEGIC>MOL_PROPERTY
Angle
SciTegic.value.DoubleValue
1.342

@<SCITEGIC>MOL_PROPERTY
Pdih
SciTegic.value.DoubleValue
4.387

@<SCITEGIC>MOL_PROPERTY
Idih
SciTegic.value.DoubleValue
0.000

@<SCITEGIC>MOL_PROPERTY
Tether
SciTegic.value.DoubleValue
0.000

@<TRIPOS>MOLECULE
guest-s12_vm2.mol2 : vm2 ligand conformer 189
          26          25           1
SMALL
USER_CHARGES
 
@<TRIPOS>ATOM
       1    N1      20.710195   19.332956   25.066068 N.4        1 MOL1        -0.4857
       2    H1      20.735247   20.041295   24.318602 H          1 MOL1         0.3650
       3    H2      21.547306   18.747010   24.923828 H          1 MOL1         0.3650
       4    C1      19.457420   18.489217   24.937057 C.3        1 MOL1         0.0209
       5    H3      18.592689   19.121684   25.152700 H          1 MOL1         0.0967
       6    H4      19.513454   17.717169   25.708636 H          1 MOL1         0.0967
       7    C2      19.277819   17.815120   23.560389 C.3        1 MOL1        -0.1378
       8    H5      20.222823   17.366657   23.228679 H          1 MOL1         0.0993
       9    H6      18.583166   16.975125   23.692801 H          1 MOL1         0.0993
      10    C3      18.688274   18.744705   22.466036 C.3        1 MOL1        -0.1338
      11    H7      17.717960   19.126187   22.812846 H          1 MOL1         0.0993
      12    H8      18.461402   18.140274   21.577689 H          1 MOL1         0.0993
      13    C4      19.570453   19.949969   22.043566 C.3        1 MOL1        -0.1338
      14    H9      19.044576   20.500865   21.251461 H          1 MOL1         0.0993
      15    H10     19.651983   20.658297   22.877219 H          1 MOL1         0.0993
      16    C5      20.987020   19.584087   21.529922 C.3        1 MOL1        -0.1313
      17    H11     21.572532   19.099862   22.321552 H          1 MOL1         0.0993
      18    H12     21.521331   20.512399   21.283570 H          1 MOL1         0.0993
      19    C6      20.966714   18.677233   20.278746 C.3        1 MOL1        -0.2328
      20    H13     20.540169   17.691679   20.503186 H          1 MOL1         0.1004
      21    H14     21.985422   18.518294   19.902138 H          1 MOL1         0.1004
      22    H15     20.377607   19.131231   19.471417 H          1 MOL1         0.1004
      23    C7      20.750106   19.996713   26.435217 C.3        1 MOL1        -0.0781
      24    H16     19.870775   20.634092   26.551125 H          1 MOL1         0.0978
      25    H17     20.752124   19.225031   27.208142 H          1 MOL1         0.0978
      26    H18     21.656792   20.600624   26.514627 H          1 MOL1         0.0978
@<TRIPOS>BOND
    1     1     2    1
    2     1     3    1
    3     1     4    1
    4     4     5    1
    5     4     6    1
    6     4     7    1
    7     7     8    1
    8     7     9    1
    9     7    10    1
   10    10    11    1
   11    10    12    1
   12    10    13    1
   13    13    14    1
   14    13    15    1
   15    13    16    1
   16    16    17    1
   17    16    18    1
   18    16    19    1
   19    19    20    1
   20    19    21    1
   21    19    22    1
   22     1    23    1
   23    23    24    1
   24    23    25    1
   25    23    26    1
@<TRIPOS>SUBSTRUCTURE
       1 MOL1            1 RESIDUE      1      MOL     
@<SCITEGIC>MOL_PROPERTY
VM2 Rank
SciTegic.value.IntegerValue
189

@<SCITEGIC>MOL_PROPERTY
Conf_Id
SciTegic.value.IntegerValue
283

@<SCITEGIC>MOL_PROPERTY
Probability
SciTegic.value.DoubleValue
0.00

@<SCITEGIC>MOL_PROPERTY
Sum Probability
SciTegic.value.DoubleValue
99.99

@<SCITEGIC>MOL_PROPERTY
Delta G
SciTegic.value.DoubleValue
4.986

@<SCITEGIC>MOL_PROPERTY
G
SciTegic.value.DoubleValue
80.452

@<SCITEGIC>MOL_PROPERTY
E
SciTegic.value.DoubleValue
47.328

@<SCITEGIC>MOL_PROPERTY
-TS
SciTegic.value.DoubleValue
33.124

@<SCITEGIC>MOL_PROPERTY
U+W
SciTegic.value.DoubleValue
25.866

@<SCITEGIC>MOL_PROPERTY
U
SciTegic.value.DoubleValue
75.257

@<SCITEGIC>MOL_PROPERTY
W
SciTegic.value.DoubleValue
-49.391

@<SCITEGIC>MOL_PROPERTY
W(PB)
SciTegic.value.DoubleValue
-51.576

@<SCITEGIC>MOL_PROPERTY
W(SA)
SciTegic.value.DoubleValue
2.186

@<SCITEGIC>MOL_PROPERTY
Valence
SciTegic.value.DoubleValue
4.258

@<SCITEGIC>MOL_PROPERTY
Coulomb
SciTegic.value.DoubleValue
71.252

@<SCITEGIC>MOL_PROPERTY
VdW
SciTegic.value.DoubleValue
-0.253

@<SCITEGIC>MOL_PROPERTY
VdW6
SciTegic.value.DoubleValue
-9.003

@<SCITEGIC>MOL_PROPERTY
VdW12
SciTegic.value.DoubleValue
8.750

@<SCITEGIC>MOL_PROPERTY
Bond
SciTegic.value.DoubleValue
0.262

@<SCITEGIC>MOL_PROPERTY
Angle
SciTegic.value.DoubleValue
1.778

@<SCITEGIC>MOL_PROPERTY
Pdih
SciTegic.value.DoubleValue
2.218

@<SCITEGIC>MOL_PROPERTY
Idih
SciTegic.value.DoubleValue
0.000

@<SCITEGIC>MOL_PROPERTY
Tether
SciTegic.value.DoubleValue
0.000

@<TRIPOS>MOLECULE
guest-s12_vm2.mol2 : vm2 ligand conformer 190
          26          25           1
SMALL
USER_CHARGES
 
@<TRIPOS>ATOM
       1    N1      19.230222   19.180562   25.013671 N.4        1 MOL1        -0.4857
       2    H1      18.541936   18.437564   24.817368 H          1 MOL1         0.3650
       3    H2      19.113929   19.874393   24.261237 H          1 MOL1         0.3650
       4    C1      20.634385   18.610397   24.978716 C.3        1 MOL1         0.0209
       5    H3      20.682783   17.837522   25.749984 H          1 MOL1         0.0967
       6    H4      21.335040   19.404030   25.249834 H          1 MOL1         0.0967
       7    C2      21.043332   17.996964   23.622861 C.3        1 MOL1        -0.1378
       8    H5      21.883442   17.315040   23.809578 H          1 MOL1         0.0993
       9    H6      20.234992   17.367920   23.229068 H          1 MOL1         0.0993
      10    C3      21.506373   19.034991   22.565791 C.3        1 MOL1        -0.1338
      11    H7      21.913137   18.495841   21.699866 H          1 MOL1         0.0993
      12    H8      22.352006   19.603513   22.976888 H          1 MOL1         0.0993
      13    C4      20.429055   20.038423   22.073966 C.3        1 MOL1        -0.1338
      14    H9      20.146899   20.709291   22.894743 H          1 MOL1         0.0993
      15    H10     20.885861   20.690540   21.316647 H          1 MOL1         0.0993
      16    C5      19.156140   19.395504   21.465110 C.3        1 MOL1        -0.1313
      17    H11     18.462597   20.197335   21.175274 H          1 MOL1         0.0993
      18    H12     18.627543   18.796527   22.217300 H          1 MOL1         0.0993
      19    C6      19.448176   18.520808   20.225005 C.3        1 MOL1        -0.2328
      20    H13     19.987568   19.091035   19.457646 H          1 MOL1         0.1004
      21    H14     18.512080   18.160522   19.779160 H          1 MOL1         0.1004
      22    H15     20.049648   17.641141   20.485866 H          1 MOL1         0.1004
      23    C7      18.960315   19.812351   26.371879 C.3        1 MOL1        -0.0781
      24    H16     19.681274   20.614419   26.544552 H          1 MOL1         0.0978
      25    H17     17.946448   20.218601   26.383252 H          1 MOL1         0.0978
      26    H18     19.061177   19.050792   27.148258 H          1 MOL1         0.0978
@<TRIPOS>BOND
    1     1     2    1
    2     1     3    1
    3     1     4    1
    4     4     5    1
    5     4     6    1
    6     4     7    1
    7     7     8    1
    8     7     9    1
    9     7    10    1
   10    10    11    1
   11    10    12    1
   12    10    13    1
   13    13    14    1
   14    13    15    1
   15    13    16    1
   16    16    17    1
   17    16    18    1
   18    16    19    1
   19    19    20    1
   20    19    21    1
   21    19    22    1
   22     1    23    1
   23    23    24    1
   24    23    25    1
   25    23    26    1
@<TRIPOS>SUBSTRUCTURE
       1 MOL1            1 RESIDUE      1      MOL     
@<SCITEGIC>MOL_PROPERTY
VM2 Rank
SciTegic.value.IntegerValue
190

@<SCITEGIC>MOL_PROPERTY
Conf_Id
SciTegic.value.IntegerValue
1324

@<SCITEGIC>MOL_PROPERTY
Probability
SciTegic.value.DoubleValue
0.00

@<SCITEGIC>MOL_PROPERTY
Sum Probability
SciTegic.value.DoubleValue
99.99

@<SCITEGIC>MOL_PROPERTY
Delta G
SciTegic.value.DoubleValue
5.111

@<SCITEGIC>MOL_PROPERTY
G
SciTegic.value.DoubleValue
80.577

@<SCITEGIC>MOL_PROPERTY
E
SciTegic.value.DoubleValue
47.453

@<SCITEGIC>MOL_PROPERTY
-TS
SciTegic.value.DoubleValue
33.124

@<SCITEGIC>MOL_PROPERTY
U+W
SciTegic.value.DoubleValue
25.991

@<SCITEGIC>MOL_PROPERTY
U
SciTegic.value.DoubleValue
75.257

@<SCITEGIC>MOL_PROPERTY
W
SciTegic.value.DoubleValue
-49.266

@<SCITEGIC>MOL_PROPERTY
W(PB)
SciTegic.value.DoubleValue
-51.474

@<SCITEGIC>MOL_PROPERTY
W(SA)
SciTegic.value.DoubleValue
2.209

@<SCITEGIC>MOL_PROPERTY
Valence
SciTegic.value.DoubleValue
4.257

@<SCITEGIC>MOL_PROPERTY
Coulomb
SciTegic.value.DoubleValue
71.252

@<SCITEGIC>MOL_PROPERTY
VdW
SciTegic.value.DoubleValue
-0.253

@<SCITEGIC>MOL_PROPERTY
VdW6
SciTegic.value.DoubleValue
-9.004

@<SCITEGIC>MOL_PROPERTY
VdW12
SciTegic.value.DoubleValue
8.751

@<SCITEGIC>MOL_PROPERTY
Bond
SciTegic.value.DoubleValue
0.262

@<SCITEGIC>MOL_PROPERTY
Angle
SciTegic.value.DoubleValue
1.778

@<SCITEGIC>MOL_PROPERTY
Pdih
SciTegic.value.DoubleValue
2.217

@<SCITEGIC>MOL_PROPERTY
Idih
SciTegic.value.DoubleValue
0.000

@<SCITEGIC>MOL_PROPERTY
Tether
SciTegic.value.DoubleValue
0.000

@<TRIPOS>MOLECULE
guest-s12_vm2.mol2 : vm2 ligand conformer 191
          26          25           1
SMALL
USER_CHARGES
 
@<TRIPOS>ATOM
       1    N1      20.227891   19.419139   25.735430 N.4        1 MOL1        -0.4857
       2    H1      20.881558   19.534774   26.525860 H          1 MOL1         0.3650
       3    H2      19.342162   19.116199   26.167938 H          1 MOL1         0.3650
       4    C1      20.757879   18.338569   24.805135 C.3        1 MOL1         0.0209
       5    H3      21.349926   17.665049   25.430053 H          1 MOL1         0.0967
       6    H4      21.440665   18.794166   24.087844 H          1 MOL1         0.0967
       7    C2      19.683869   17.483703   24.093992 C.3        1 MOL1        -0.1378
       8    H5      20.179004   16.619871   23.631305 H          1 MOL1         0.0993
       9    H6      19.020582   17.064452   24.862007 H          1 MOL1         0.0993
      10    C3      18.813951   18.194490   23.022493 C.3        1 MOL1        -0.1338
      11    H7      18.343634   19.097525   23.429317 H          1 MOL1         0.0993
      12    H8      17.978509   17.518801   22.792411 H          1 MOL1         0.0993
      13    C4      19.533465   18.500597   21.681803 C.3        1 MOL1        -0.1338
      14    H9      20.162926   17.648098   21.391985 H          1 MOL1         0.0993
      15    H10     18.766488   18.587609   20.899668 H          1 MOL1         0.0993
      16    C5      20.368736   19.802444   21.676950 C.3        1 MOL1        -0.1313
      17    H11     21.193229   19.734989   22.394581 H          1 MOL1         0.0993
      18    H12     19.739915   20.647993   21.987447 H          1 MOL1         0.0993
      19    C6      20.954701   20.095091   20.279134 C.3        1 MOL1        -0.2328
      20    H13     21.544897   21.020571   20.292209 H          1 MOL1         0.1004
      21    H14     20.158195   20.214917   19.533209 H          1 MOL1         0.1004
      22    H15     21.612765   19.280855   19.948717 H          1 MOL1         0.1004
      23    C7      20.067509   20.755967   25.022064 C.3        1 MOL1        -0.0781
      24    H16     19.331725   20.660407   24.223575 H          1 MOL1         0.0978
      25    H17     19.730290   21.505071   25.741918 H          1 MOL1         0.0978
      26    H18     21.030691   21.056161   24.603916 H          1 MOL1         0.0978
@<TRIPOS>BOND
    1     1     2    1
    2     1     3    1
    3     1     4    1
    4     4     5    1
    5     4     6    1
    6     4     7    1
    7     7     8    1
    8     7     9    1
    9     7    10    1
   10    10    11    1
   11    10    12    1
   12    10    13    1
   13    13    14    1
   14    13    15    1
   15    13    16    1
   16    16    17    1
   17    16    18    1
   18    16    19    1
   19    19    20    1
   20    19    21    1
   21    19    22    1
   22     1    23    1
   23    23    24    1
   24    23    25    1
   25    23    26    1
@<TRIPOS>SUBSTRUCTURE
       1 MOL1            1 RESIDUE      1      MOL     
@<SCITEGIC>MOL_PROPERTY
VM2 Rank
SciTegic.value.IntegerValue
191

@<SCITEGIC>MOL_PROPERTY
Conf_Id
SciTegic.value.IntegerValue
1875

@<SCITEGIC>MOL_PROPERTY
Probability
SciTegic.value.DoubleValue
0.00

@<SCITEGIC>MOL_PROPERTY
Sum Probability
SciTegic.value.DoubleValue
99.99

@<SCITEGIC>MOL_PROPERTY
Delta G
SciTegic.value.DoubleValue
5.224

@<SCITEGIC>MOL_PROPERTY
G
SciTegic.value.DoubleValue
80.690

@<SCITEGIC>MOL_PROPERTY
E
SciTegic.value.DoubleValue
47.922

@<SCITEGIC>MOL_PROPERTY
-TS
SciTegic.value.DoubleValue
32.768

@<SCITEGIC>MOL_PROPERTY
U+W
SciTegic.value.DoubleValue
26.460

@<SCITEGIC>MOL_PROPERTY
U
SciTegic.value.DoubleValue
76.751

@<SCITEGIC>MOL_PROPERTY
W
SciTegic.value.DoubleValue
-50.292

@<SCITEGIC>MOL_PROPERTY
W(PB)
SciTegic.value.DoubleValue
-52.453

@<SCITEGIC>MOL_PROPERTY
W(SA)
SciTegic.value.DoubleValue
2.162

@<SCITEGIC>MOL_PROPERTY
Valence
SciTegic.value.DoubleValue
6.849

@<SCITEGIC>MOL_PROPERTY
Coulomb
SciTegic.value.DoubleValue
70.206

@<SCITEGIC>MOL_PROPERTY
VdW
SciTegic.value.DoubleValue
-0.305

@<SCITEGIC>MOL_PROPERTY
VdW6
SciTegic.value.DoubleValue
-9.093

@<SCITEGIC>MOL_PROPERTY
VdW12
SciTegic.value.DoubleValue
8.788

@<SCITEGIC>MOL_PROPERTY
Bond
SciTegic.value.DoubleValue
0.276

@<SCITEGIC>MOL_PROPERTY
Angle
SciTegic.value.DoubleValue
2.525

@<SCITEGIC>MOL_PROPERTY
Pdih
SciTegic.value.DoubleValue
4.048

@<SCITEGIC>MOL_PROPERTY
Idih
SciTegic.value.DoubleValue
0.000

@<SCITEGIC>MOL_PROPERTY
Tether
SciTegic.value.DoubleValue
0.000

@<TRIPOS>MOLECULE
guest-s12_vm2.mol2 : vm2 ligand conformer 192
          26          25           1
SMALL
USER_CHARGES
 
@<TRIPOS>ATOM
       1    N1      19.736339   18.335481   24.855809 N.4        1 MOL1        -0.4857
       2    H1      20.399135   17.545141   24.831024 H          1 MOL1         0.3650
       3    H2      19.257979   18.326226   23.943091 H          1 MOL1         0.3650
       4    C1      20.489395   19.639911   25.031772 C.3        1 MOL1         0.0209
       5    H3      21.043397   19.563080   25.970774 H          1 MOL1         0.0967
       6    H4      19.760965   20.448314   25.132639 H          1 MOL1         0.0967
       7    C2      21.473137   19.966325   23.888251 C.3        1 MOL1        -0.1378
       8    H5      22.217816   20.670956   24.281589 H          1 MOL1         0.0993
       9    H6      22.038084   19.069076   23.605378 H          1 MOL1         0.0993
      10    C3      20.813762   20.623024   22.645495 C.3        1 MOL1        -0.1338
      11    H7      21.603081   20.881424   21.926074 H          1 MOL1         0.0993
      12    H8      20.364606   21.578699   22.949508 H          1 MOL1         0.0993
      13    C4      19.734650   19.780778   21.918095 C.3        1 MOL1        -0.1338
      14    H9      18.875845   19.613639   22.579906 H          1 MOL1         0.0993
      15    H10     19.345467   20.374501   21.079239 H          1 MOL1         0.0993
      16    C5      20.264298   18.435801   21.365523 C.3        1 MOL1        -0.1313
      17    H11     20.661946   17.811992   22.175756 H          1 MOL1         0.0993
      18    H12     21.100502   18.625325   20.677915 H          1 MOL1         0.0993
      19    C6      19.160944   17.651984   20.623581 C.3        1 MOL1        -0.2328
      20    H13     18.321998   17.418391   21.291843 H          1 MOL1         0.1004
      21    H14     19.554415   16.704214   20.233688 H          1 MOL1         0.1004
      22    H15     18.770607   18.227966   19.774368 H          1 MOL1         0.1004
      23    C7      18.735476   18.156697   25.988473 C.3        1 MOL1        -0.0781
      24    H16     18.027023   18.987875   25.976379 H          1 MOL1         0.0978
      25    H17     18.201191   17.214193   25.849455 H          1 MOL1         0.0978
      26    H18     19.270367   18.140402   26.940597 H          1 MOL1         0.0978
@<TRIPOS>BOND
    1     1     2    1
    2     1     3    1
    3     1     4    1
    4     4     5    1
    5     4     6    1
    6     4     7    1
    7     7     8    1
    8     7     9    1
    9     7    10    1
   10    10    11    1
   11    10    12    1
   12    10    13    1
   13    13    14    1
   14    13    15    1
   15    13    16    1
   16    16    17    1
   17    16    18    1
   18    16    19    1
   19    19    20    1
   20    19    21    1
   21    19    22    1
   22     1    23    1
   23    23    24    1
   24    23    25    1
   25    23    26    1
@<TRIPOS>SUBSTRUCTURE
       1 MOL1            1 RESIDUE      1      MOL     
@<SCITEGIC>MOL_PROPERTY
VM2 Rank
SciTegic.value.IntegerValue
192

@<SCITEGIC>MOL_PROPERTY
Conf_Id
SciTegic.value.IntegerValue
766

@<SCITEGIC>MOL_PROPERTY
Probability
SciTegic.value.DoubleValue
0.00

@<SCITEGIC>MOL_PROPERTY
Sum Probability
SciTegic.value.DoubleValue
99.99

@<SCITEGIC>MOL_PROPERTY
Delta G
SciTegic.value.DoubleValue
5.237

@<SCITEGIC>MOL_PROPERTY
G
SciTegic.value.DoubleValue
80.703

@<SCITEGIC>MOL_PROPERTY
E
SciTegic.value.DoubleValue
47.755

@<SCITEGIC>MOL_PROPERTY
-TS
SciTegic.value.DoubleValue
32.948

@<SCITEGIC>MOL_PROPERTY
U+W
SciTegic.value.DoubleValue
26.293

@<SCITEGIC>MOL_PROPERTY
U
SciTegic.value.DoubleValue
74.740

@<SCITEGIC>MOL_PROPERTY
W
SciTegic.value.DoubleValue
-48.447

@<SCITEGIC>MOL_PROPERTY
W(PB)
SciTegic.value.DoubleValue
-50.668

@<SCITEGIC>MOL_PROPERTY
W(SA)
SciTegic.value.DoubleValue
2.221

@<SCITEGIC>MOL_PROPERTY
Valence
SciTegic.value.DoubleValue
3.847

@<SCITEGIC>MOL_PROPERTY
Coulomb
SciTegic.value.DoubleValue
71.181

@<SCITEGIC>MOL_PROPERTY
VdW
SciTegic.value.DoubleValue
-0.288

@<SCITEGIC>MOL_PROPERTY
VdW6
SciTegic.value.DoubleValue
-8.401

@<SCITEGIC>MOL_PROPERTY
VdW12
SciTegic.value.DoubleValue
8.113

@<SCITEGIC>MOL_PROPERTY
Bond
SciTegic.value.DoubleValue
0.222

@<SCITEGIC>MOL_PROPERTY
Angle
SciTegic.value.DoubleValue
1.471

@<SCITEGIC>MOL_PROPERTY
Pdih
SciTegic.value.DoubleValue
2.154

@<SCITEGIC>MOL_PROPERTY
Idih
SciTegic.value.DoubleValue
0.000

@<SCITEGIC>MOL_PROPERTY
Tether
SciTegic.value.DoubleValue
0.000

@<TRIPOS>MOLECULE
guest-s12_vm2.mol2 : vm2 ligand conformer 193
          26          25           1
SMALL
USER_CHARGES
 
@<TRIPOS>ATOM
       1    N1      20.390666   18.399048   24.879075 N.4        1 MOL1        -0.4857
       2    H1      20.924890   18.488152   24.002356 H          1 MOL1         0.3650
       3    H2      19.895627   17.496194   24.813161 H          1 MOL1         0.3650
       4    C1      19.390363   19.533109   24.992641 C.3        1 MOL1         0.0209
       5    H3      19.940820   20.465788   25.138957 H          1 MOL1         0.0967
       6    H4      18.796787   19.344803   25.890837 H          1 MOL1         0.0967
       7    C2      18.445181   19.672048   23.780510 C.3        1 MOL1        -0.1378
       8    H5      18.084674   18.684854   23.464723 H          1 MOL1         0.0993
       9    H6      17.553088   20.217604   24.115627 H          1 MOL1         0.0993
      10    C3      19.051755   20.451776   22.582776 C.3        1 MOL1        -0.1338
      11    H7      19.286159   21.473903   22.911092 H          1 MOL1         0.0993
      12    H8      18.280121   20.558423   21.807813 H          1 MOL1         0.0993
      13    C4      20.321210   19.837814   21.938956 C.3        1 MOL1        -0.1338
      14    H9      20.647009   20.501018   21.125528 H          1 MOL1         0.0993
      15    H10     21.147349   19.834477   22.660729 H          1 MOL1         0.0993
      16    C5      20.100408   18.419878   21.359705 C.3        1 MOL1        -0.1313
      17    H11     19.293949   18.449724   20.613585 H          1 MOL1         0.0993
      18    H12     19.774050   17.725733   22.144173 H          1 MOL1         0.0993
      19    C6      21.383407   17.867964   20.702788 C.3        1 MOL1        -0.2328
      20    H13     21.714559   18.514032   19.879249 H          1 MOL1         0.1004
      21    H14     21.208033   16.864892   20.292673 H          1 MOL1         0.1004
      22    H15     22.202384   17.795530   21.430109 H          1 MOL1         0.1004
      23    C7      21.325009   18.408363   26.080548 C.3        1 MOL1        -0.0781
      24    H16     20.737601   18.283006   26.992772 H          1 MOL1         0.0978
      25    H17     22.039012   17.587176   25.985926 H          1 MOL1         0.0978
      26    H18     21.859449   19.360336   26.112633 H          1 MOL1         0.0978
@<TRIPOS>BOND
    1     1     2    1
    2     1     3    1
    3     1     4    1
    4     4     5    1
    5     4     6    1
    6     4     7    1
    7     7     8    1
    8     7     9    1
    9     7    10    1
   10    10    11    1
   11    10    12    1
   12    10    13    1
   13    13    14    1
   14    13    15    1
   15    13    16    1
   16    16    17    1
   17    16    18    1
   18    16    19    1
   19    19    20    1
   20    19    21    1
   21    19    22    1
   22     1    23    1
   23    23    24    1
   24    23    25    1
   25    23    26    1
@<TRIPOS>SUBSTRUCTURE
       1 MOL1            1 RESIDUE      1      MOL     
@<SCITEGIC>MOL_PROPERTY
VM2 Rank
SciTegic.value.IntegerValue
193

@<SCITEGIC>MOL_PROPERTY
Conf_Id
SciTegic.value.IntegerValue
149

@<SCITEGIC>MOL_PROPERTY
Probability
SciTegic.value.DoubleValue
0.00

@<SCITEGIC>MOL_PROPERTY
Sum Probability
SciTegic.value.DoubleValue
99.99

@<SCITEGIC>MOL_PROPERTY
Delta G
SciTegic.value.DoubleValue
5.291

@<SCITEGIC>MOL_PROPERTY
G
SciTegic.value.DoubleValue
80.757

@<SCITEGIC>MOL_PROPERTY
E
SciTegic.value.DoubleValue
47.809

@<SCITEGIC>MOL_PROPERTY
-TS
SciTegic.value.DoubleValue
32.948

@<SCITEGIC>MOL_PROPERTY
U+W
SciTegic.value.DoubleValue
26.347

@<SCITEGIC>MOL_PROPERTY
U
SciTegic.value.DoubleValue
74.740

@<SCITEGIC>MOL_PROPERTY
W
SciTegic.value.DoubleValue
-48.393

@<SCITEGIC>MOL_PROPERTY
W(PB)
SciTegic.value.DoubleValue
-50.619

@<SCITEGIC>MOL_PROPERTY
W(SA)
SciTegic.value.DoubleValue
2.226

@<SCITEGIC>MOL_PROPERTY
Valence
SciTegic.value.DoubleValue
3.847

@<SCITEGIC>MOL_PROPERTY
Coulomb
SciTegic.value.DoubleValue
71.181

@<SCITEGIC>MOL_PROPERTY
VdW
SciTegic.value.DoubleValue
-0.288

@<SCITEGIC>MOL_PROPERTY
VdW6
SciTegic.value.DoubleValue
-8.401

@<SCITEGIC>MOL_PROPERTY
VdW12
SciTegic.value.DoubleValue
8.113

@<SCITEGIC>MOL_PROPERTY
Bond
SciTegic.value.DoubleValue
0.222

@<SCITEGIC>MOL_PROPERTY
Angle
SciTegic.value.DoubleValue
1.471

@<SCITEGIC>MOL_PROPERTY
Pdih
SciTegic.value.DoubleValue
2.154

@<SCITEGIC>MOL_PROPERTY
Idih
SciTegic.value.DoubleValue
0.000

@<SCITEGIC>MOL_PROPERTY
Tether
SciTegic.value.DoubleValue
0.000

@<TRIPOS>MOLECULE
guest-s12_vm2.mol2 : vm2 ligand conformer 194
          26          25           1
SMALL
USER_CHARGES
 
@<TRIPOS>ATOM
       1    N1      20.632198   18.747074   25.914573 N.4        1 MOL1        -0.4857
       2    H1      21.545278   18.820734   25.441007 H          1 MOL1         0.3650
       3    H2      20.813447   18.174584   26.754228 H          1 MOL1         0.3650
       4    C1      19.630956   18.027591   25.024475 C.3        1 MOL1         0.0209
       5    H3      18.624190   18.300447   25.350469 H          1 MOL1         0.0967
       6    H4      19.760945   16.957916   25.207813 H          1 MOL1         0.0967
       7    C2      19.791084   18.273663   23.507488 C.3        1 MOL1        -0.1378
       8    H5      20.801426   17.972675   23.204107 H          1 MOL1         0.0993
       9    H6      19.091264   17.611339   22.981150 H          1 MOL1         0.0993
      10    C3      19.525143   19.735804   23.077403 C.3        1 MOL1        -0.1338
      11    H7      20.332568   20.381140   23.447369 H          1 MOL1         0.0993
      12    H8      18.601169   20.086156   23.557884 H          1 MOL1         0.0993
      13    C4      19.383287   19.936258   21.546153 C.3        1 MOL1        -0.1338
      14    H9      18.523283   19.367252   21.166968 H          1 MOL1         0.0993
      15    H10     19.136172   20.993100   21.374372 H          1 MOL1         0.0993
      16    C5      20.654396   19.600852   20.723420 C.3        1 MOL1        -0.1313
      17    H11     21.557415   19.799449   21.317302 H          1 MOL1         0.0993
      18    H12     20.702813   20.283932   19.863738 H          1 MOL1         0.0993
      19    C6      20.675935   18.152820   20.180075 C.3        1 MOL1        -0.2328
      20    H13     21.575872   17.984215   19.574610 H          1 MOL1         0.1004
      21    H14     19.804723   17.960842   19.540442 H          1 MOL1         0.1004
      22    H15     20.675210   17.408948   20.983901 H          1 MOL1         0.1004
      23    C7      20.115000   20.115939   26.343411 C.3        1 MOL1        -0.0781
      24    H16     19.169961   19.989865   26.876140 H          1 MOL1         0.0978
      25    H17     20.849018   20.583225   27.003649 H          1 MOL1         0.0978
      26    H18     19.961350   20.743579   25.464875 H          1 MOL1         0.0978
@<TRIPOS>BOND
    1     1     2    1
    2     1     3    1
    3     1     4    1
    4     4     5    1
    5     4     6    1
    6     4     7    1
    7     7     8    1
    8     7     9    1
    9     7    10    1
   10    10    11    1
   11    10    12    1
   12    10    13    1
   13    13    14    1
   14    13    15    1
   15    13    16    1
   16    16    17    1
   17    16    18    1
   18    16    19    1
   19    19    20    1
   20    19    21    1
   21    19    22    1
   22     1    23    1
   23    23    24    1
   24    23    25    1
   25    23    26    1
@<TRIPOS>SUBSTRUCTURE
       1 MOL1            1 RESIDUE      1      MOL     
@<SCITEGIC>MOL_PROPERTY
VM2 Rank
SciTegic.value.IntegerValue
194

@<SCITEGIC>MOL_PROPERTY
Conf_Id
SciTegic.value.IntegerValue
550

@<SCITEGIC>MOL_PROPERTY
Probability
SciTegic.value.DoubleValue
0.00

@<SCITEGIC>MOL_PROPERTY
Sum Probability
SciTegic.value.DoubleValue
99.99

@<SCITEGIC>MOL_PROPERTY
Delta G
SciTegic.value.DoubleValue
5.328

@<SCITEGIC>MOL_PROPERTY
G
SciTegic.value.DoubleValue
80.794

@<SCITEGIC>MOL_PROPERTY
E
SciTegic.value.DoubleValue
47.955

@<SCITEGIC>MOL_PROPERTY
-TS
SciTegic.value.DoubleValue
32.839

@<SCITEGIC>MOL_PROPERTY
U+W
SciTegic.value.DoubleValue
26.493

@<SCITEGIC>MOL_PROPERTY
U
SciTegic.value.DoubleValue
76.259

@<SCITEGIC>MOL_PROPERTY
W
SciTegic.value.DoubleValue
-49.766

@<SCITEGIC>MOL_PROPERTY
W(PB)
SciTegic.value.DoubleValue
-51.983

@<SCITEGIC>MOL_PROPERTY
W(SA)
SciTegic.value.DoubleValue
2.218

@<SCITEGIC>MOL_PROPERTY
Valence
SciTegic.value.DoubleValue
6.620

@<SCITEGIC>MOL_PROPERTY
Coulomb
SciTegic.value.DoubleValue
69.255

@<SCITEGIC>MOL_PROPERTY
VdW
SciTegic.value.DoubleValue
0.384

@<SCITEGIC>MOL_PROPERTY
VdW6
SciTegic.value.DoubleValue
-8.486

@<SCITEGIC>MOL_PROPERTY
VdW12
SciTegic.value.DoubleValue
8.870

@<SCITEGIC>MOL_PROPERTY
Bond
SciTegic.value.DoubleValue
0.273

@<SCITEGIC>MOL_PROPERTY
Angle
SciTegic.value.DoubleValue
1.660

@<SCITEGIC>MOL_PROPERTY
Pdih
SciTegic.value.DoubleValue
4.688

@<SCITEGIC>MOL_PROPERTY
Idih
SciTegic.value.DoubleValue
0.000

@<SCITEGIC>MOL_PROPERTY
Tether
SciTegic.value.DoubleValue
0.000

@<TRIPOS>MOLECULE
guest-s12_vm2.mol2 : vm2 ligand conformer 195
          26          25           1
SMALL
USER_CHARGES
 
@<TRIPOS>ATOM
       1    N1      19.365492   18.617560   25.869703 N.4        1 MOL1        -0.4857
       2    H1      19.245310   18.014192   26.698630 H          1 MOL1         0.3650
       3    H2      18.491808   18.508652   25.332844 H          1 MOL1         0.3650
       4    C1      20.551264   18.121677   25.057023 C.3        1 MOL1         0.0209
       5    H3      20.627618   17.046513   25.238423 H          1 MOL1         0.0967
       6    H4      21.456780   18.590006   25.450734 H          1 MOL1         0.0967
       7    C2      20.451280   18.341216   23.530837 C.3        1 MOL1        -0.1378
       8    H5      21.305631   17.837839   23.059511 H          1 MOL1         0.0993
       9    H6      19.546408   17.844391   23.159625 H          1 MOL1         0.0993
      10    C3      20.445582   19.829985   23.110017 C.3        1 MOL1        -0.1338
      11    H7      21.243676   20.356443   23.651518 H          1 MOL1         0.0993
      12    H8      19.500475   20.296078   23.417915 H          1 MOL1         0.0993
      13    C4      20.650858   20.065983   21.591069 C.3        1 MOL1        -0.1338
      14    H9      20.690478   21.152171   21.429458 H          1 MOL1         0.0993
      15    H10     21.632597   19.685460   21.277144 H          1 MOL1         0.0993
      16    C5      19.534712   19.486276   20.683731 C.3        1 MOL1        -0.1313
      17    H11     19.409459   20.151581   19.817892 H          1 MOL1         0.0993
      18    H12     18.570850   19.493826   21.211454 H          1 MOL1         0.0993
      19    C6      19.844668   18.067756   20.150610 C.3        1 MOL1        -0.2328
      20    H13     20.779340   18.060574   19.574996 H          1 MOL1         0.1004
      21    H14     19.042132   17.724937   19.484792 H          1 MOL1         0.1004
      22    H15     19.939520   17.333663   20.957822 H          1 MOL1         0.1004
      23    C7      19.564144   20.059547   26.324010 C.3        1 MOL1        -0.0781
      24    H16     19.648948   20.711621   25.453967 H          1 MOL1         0.0978
      25    H17     18.706468   20.364114   26.927901 H          1 MOL1         0.0978
      26    H18     20.475501   20.123146   26.922490 H          1 MOL1         0.0978
@<TRIPOS>BOND
    1     1     2    1
    2     1     3    1
    3     1     4    1
    4     4     5    1
    5     4     6    1
    6     4     7    1
    7     7     8    1
    8     7     9    1
    9     7    10    1
   10    10    11    1
   11    10    12    1
   12    10    13    1
   13    13    14    1
   14    13    15    1
   15    13    16    1
   16    16    17    1
   17    16    18    1
   18    16    19    1
   19    19    20    1
   20    19    21    1
   21    19    22    1
   22     1    23    1
   23    23    24    1
   24    23    25    1
   25    23    26    1
@<TRIPOS>SUBSTRUCTURE
       1 MOL1            1 RESIDUE      1      MOL     
@<SCITEGIC>MOL_PROPERTY
VM2 Rank
SciTegic.value.IntegerValue
195

@<SCITEGIC>MOL_PROPERTY
Conf_Id
SciTegic.value.IntegerValue
864

@<SCITEGIC>MOL_PROPERTY
Probability
SciTegic.value.DoubleValue
0.00

@<SCITEGIC>MOL_PROPERTY
Sum Probability
SciTegic.value.DoubleValue
99.99

@<SCITEGIC>MOL_PROPERTY
Delta G
SciTegic.value.DoubleValue
5.336

@<SCITEGIC>MOL_PROPERTY
G
SciTegic.value.DoubleValue
80.802

@<SCITEGIC>MOL_PROPERTY
E
SciTegic.value.DoubleValue
47.963

@<SCITEGIC>MOL_PROPERTY
-TS
SciTegic.value.DoubleValue
32.840

@<SCITEGIC>MOL_PROPERTY
U+W
SciTegic.value.DoubleValue
26.501

@<SCITEGIC>MOL_PROPERTY
U
SciTegic.value.DoubleValue
76.259

@<SCITEGIC>MOL_PROPERTY
W
SciTegic.value.DoubleValue
-49.758

@<SCITEGIC>MOL_PROPERTY
W(PB)
SciTegic.value.DoubleValue
-51.980

@<SCITEGIC>MOL_PROPERTY
W(SA)
SciTegic.value.DoubleValue
2.222

@<SCITEGIC>MOL_PROPERTY
Valence
SciTegic.value.DoubleValue
6.620

@<SCITEGIC>MOL_PROPERTY
Coulomb
SciTegic.value.DoubleValue
69.255

@<SCITEGIC>MOL_PROPERTY
VdW
SciTegic.value.DoubleValue
0.384

@<SCITEGIC>MOL_PROPERTY
VdW6
SciTegic.value.DoubleValue
-8.486

@<SCITEGIC>MOL_PROPERTY
VdW12
SciTegic.value.DoubleValue
8.870

@<SCITEGIC>MOL_PROPERTY
Bond
SciTegic.value.DoubleValue
0.273

@<SCITEGIC>MOL_PROPERTY
Angle
SciTegic.value.DoubleValue
1.660

@<SCITEGIC>MOL_PROPERTY
Pdih
SciTegic.value.DoubleValue
4.688

@<SCITEGIC>MOL_PROPERTY
Idih
SciTegic.value.DoubleValue
0.000

@<SCITEGIC>MOL_PROPERTY
Tether
SciTegic.value.DoubleValue
0.000

@<TRIPOS>MOLECULE
guest-s12_vm2.mol2 : vm2 ligand conformer 196
          26          25           1
SMALL
USER_CHARGES
 
@<TRIPOS>ATOM
       1    N1      19.296953   18.561948   25.692037 N.4        1 MOL1        -0.4857
       2    H1      19.128643   17.991795   26.535970 H          1 MOL1         0.3650
       3    H2      18.594856   18.240434   25.008775 H          1 MOL1         0.3650
       4    C1      20.700691   18.291374   25.174804 C.3        1 MOL1         0.0209
       5    H3      20.970438   17.286115   25.508577 H          1 MOL1         0.0967
       6    H4      21.384596   18.995498   25.655215 H          1 MOL1         0.0967
       7    C2      20.864235   18.344535   23.639435 C.3        1 MOL1        -0.1378
       8    H5      21.890317   18.034703   23.401536 H          1 MOL1         0.0993
       9    H6      20.207054   17.595488   23.184378 H          1 MOL1         0.0993
      10    C3      20.606301   19.745661   23.028928 C.3        1 MOL1        -0.1338
      11    H7      21.227231   20.473382   23.569568 H          1 MOL1         0.0993
      12    H8      19.564008   20.050669   23.186973 H          1 MOL1         0.0993
      13    C4      20.948883   19.836564   21.518392 C.3        1 MOL1        -0.1338
      14    H9      21.330247   20.847015   21.315839 H          1 MOL1         0.0993
      15    H10     21.774764   19.155590   21.271164 H          1 MOL1         0.0993
      16    C5      19.753170   19.591907   20.562333 C.3        1 MOL1        -0.1313
      17    H11     20.096212   19.749636   19.530201 H          1 MOL1         0.0993
      18    H12     18.975985   20.347797   20.742307 H          1 MOL1         0.0993
      19    C6      19.130458   18.182491   20.665720 C.3        1 MOL1        -0.2328
      20    H13     19.896566   17.401960   20.572474 H          1 MOL1         0.1004
      21    H14     18.395567   18.028821   19.864970 H          1 MOL1         0.1004
      22    H15     18.605815   18.047770   21.619212 H          1 MOL1         0.1004
      23    C7      19.107309   20.035521   26.035350 C.3        1 MOL1        -0.0781
      24    H16     19.835108   20.320750   26.798080 H          1 MOL1         0.0978
      25    H17     19.253818   20.643964   25.142132 H          1 MOL1         0.0978
      26    H18     18.095710   20.184769   26.419336 H          1 MOL1         0.0978
@<TRIPOS>BOND
    1     1     2    1
    2     1     3    1
    3     1     4    1
    4     4     5    1
    5     4     6    1
    6     4     7    1
    7     7     8    1
    8     7     9    1
    9     7    10    1
   10    10    11    1
   11    10    12    1
   12    10    13    1
   13    13    14    1
   14    13    15    1
   15    13    16    1
   16    16    17    1
   17    16    18    1
   18    16    19    1
   19    19    20    1
   20    19    21    1
   21    19    22    1
   22     1    23    1
   23    23    24    1
   24    23    25    1
   25    23    26    1
@<TRIPOS>SUBSTRUCTURE
       1 MOL1            1 RESIDUE      1      MOL     
@<SCITEGIC>MOL_PROPERTY
VM2 Rank
SciTegic.value.IntegerValue
196

@<SCITEGIC>MOL_PROPERTY
Conf_Id
SciTegic.value.IntegerValue
576

@<SCITEGIC>MOL_PROPERTY
Probability
SciTegic.value.DoubleValue
0.00

@<SCITEGIC>MOL_PROPERTY
Sum Probability
SciTegic.value.DoubleValue
99.99

@<SCITEGIC>MOL_PROPERTY
Delta G
SciTegic.value.DoubleValue
5.486

@<SCITEGIC>MOL_PROPERTY
G
SciTegic.value.DoubleValue
80.952

@<SCITEGIC>MOL_PROPERTY
E
SciTegic.value.DoubleValue
48.182

@<SCITEGIC>MOL_PROPERTY
-TS
SciTegic.value.DoubleValue
32.770

@<SCITEGIC>MOL_PROPERTY
U+W
SciTegic.value.DoubleValue
26.720

@<SCITEGIC>MOL_PROPERTY
U
SciTegic.value.DoubleValue
76.621

@<SCITEGIC>MOL_PROPERTY
W
SciTegic.value.DoubleValue
-49.901

@<SCITEGIC>MOL_PROPERTY
W(PB)
SciTegic.value.DoubleValue
-52.078

@<SCITEGIC>MOL_PROPERTY
W(SA)
SciTegic.value.DoubleValue
2.177

@<SCITEGIC>MOL_PROPERTY
Valence
SciTegic.value.DoubleValue
6.730

@<SCITEGIC>MOL_PROPERTY
Coulomb
SciTegic.value.DoubleValue
69.541

@<SCITEGIC>MOL_PROPERTY
VdW
SciTegic.value.DoubleValue
0.350

@<SCITEGIC>MOL_PROPERTY
VdW6
SciTegic.value.DoubleValue
-8.499

@<SCITEGIC>MOL_PROPERTY
VdW12
SciTegic.value.DoubleValue
8.849

@<SCITEGIC>MOL_PROPERTY
Bond
SciTegic.value.DoubleValue
0.279

@<SCITEGIC>MOL_PROPERTY
Angle
SciTegic.value.DoubleValue
1.640

@<SCITEGIC>MOL_PROPERTY
Pdih
SciTegic.value.DoubleValue
4.811

@<SCITEGIC>MOL_PROPERTY
Idih
SciTegic.value.DoubleValue
0.000

@<SCITEGIC>MOL_PROPERTY
Tether
SciTegic.value.DoubleValue
0.000

@<TRIPOS>MOLECULE
guest-s12_vm2.mol2 : vm2 ligand conformer 197
          26          25           1
SMALL
USER_CHARGES
 
@<TRIPOS>ATOM
       1    N1      19.977814   18.758165   26.108599 N.4        1 MOL1        -0.4857
       2    H1      20.960816   18.447756   26.080075 H          1 MOL1         0.3650
       3    H2      19.587160   18.326570   26.961074 H          1 MOL1         0.3650
       4    C1      19.224290   18.240390   24.893702 C.3        1 MOL1         0.0209
       5    H3      18.359039   18.886621   24.726278 H          1 MOL1         0.0967
       6    H4      18.851149   17.247052   25.155934 H          1 MOL1         0.0967
       7    C2      20.056806   18.110184   23.598602 C.3        1 MOL1        -0.1378
       8    H5      20.899836   17.429752   23.776926 H          1 MOL1         0.0993
       9    H6      19.429223   17.621540   22.844990 H          1 MOL1         0.0993
      10    C3      20.585985   19.460107   23.052317 C.3        1 MOL1        -0.1338
      11    H7      21.335133   19.846629   23.755621 H          1 MOL1         0.0993
      12    H8      19.778490   20.204439   23.020041 H          1 MOL1         0.0993
      13    C4      21.254858   19.339758   21.657962 C.3        1 MOL1        -0.1338
      14    H9      22.101550   20.039313   21.622594 H          1 MOL1         0.0993
      15    H10     21.692095   18.340019   21.529136 H          1 MOL1         0.0993
      16    C5      20.324562   19.673812   20.463572 C.3        1 MOL1        -0.1313
      17    H11     20.915432   19.629509   19.537966 H          1 MOL1         0.0993
      18    H12     19.973237   20.711556   20.549925 H          1 MOL1         0.0993
      19    C6      19.108670   18.732182   20.320344 C.3        1 MOL1        -0.2328
      20    H13     18.407653   18.855677   21.155053 H          1 MOL1         0.1004
      21    H14     19.423764   17.681531   20.279906 H          1 MOL1         0.1004
      22    H15     18.559473   18.953113   19.395981 H          1 MOL1         0.1004
      23    C7      19.875015   20.275401   26.221901 C.3        1 MOL1        -0.0781
      24    H16     18.822520   20.557441   26.296093 H          1 MOL1         0.0978
      25    H17     20.406757   20.602632   27.118129 H          1 MOL1         0.0978
      26    H18     20.319489   20.741555   25.341730 H          1 MOL1         0.0978
@<TRIPOS>BOND
    1     1     2    1
    2     1     3    1
    3     1     4    1
    4     4     5    1
    5     4     6    1
    6     4     7    1
    7     7     8    1
    8     7     9    1
    9     7    10    1
   10    10    11    1
   11    10    12    1
   12    10    13    1
   13    13    14    1
   14    13    15    1
   15    13    16    1
   16    16    17    1
   17    16    18    1
   18    16    19    1
   19    19    20    1
   20    19    21    1
   21    19    22    1
   22     1    23    1
   23    23    24    1
   24    23    25    1
   25    23    26    1
@<TRIPOS>SUBSTRUCTURE
       1 MOL1            1 RESIDUE      1      MOL     
@<SCITEGIC>MOL_PROPERTY
VM2 Rank
SciTegic.value.IntegerValue
197

@<SCITEGIC>MOL_PROPERTY
Conf_Id
SciTegic.value.IntegerValue
222

@<SCITEGIC>MOL_PROPERTY
Probability
SciTegic.value.DoubleValue
0.00

@<SCITEGIC>MOL_PROPERTY
Sum Probability
SciTegic.value.DoubleValue
99.99

@<SCITEGIC>MOL_PROPERTY
Delta G
SciTegic.value.DoubleValue
5.503

@<SCITEGIC>MOL_PROPERTY
G
SciTegic.value.DoubleValue
80.969

@<SCITEGIC>MOL_PROPERTY
E
SciTegic.value.DoubleValue
48.050

@<SCITEGIC>MOL_PROPERTY
-TS
SciTegic.value.DoubleValue
32.919

@<SCITEGIC>MOL_PROPERTY
U+W
SciTegic.value.DoubleValue
26.588

@<SCITEGIC>MOL_PROPERTY
U
SciTegic.value.DoubleValue
76.255

@<SCITEGIC>MOL_PROPERTY
W
SciTegic.value.DoubleValue
-49.666

@<SCITEGIC>MOL_PROPERTY
W(PB)
SciTegic.value.DoubleValue
-51.863

@<SCITEGIC>MOL_PROPERTY
W(SA)
SciTegic.value.DoubleValue
2.196

@<SCITEGIC>MOL_PROPERTY
Valence
SciTegic.value.DoubleValue
6.727

@<SCITEGIC>MOL_PROPERTY
Coulomb
SciTegic.value.DoubleValue
69.126

@<SCITEGIC>MOL_PROPERTY
VdW
SciTegic.value.DoubleValue
0.402

@<SCITEGIC>MOL_PROPERTY
VdW6
SciTegic.value.DoubleValue
-8.493

@<SCITEGIC>MOL_PROPERTY
VdW12
SciTegic.value.DoubleValue
8.895

@<SCITEGIC>MOL_PROPERTY
Bond
SciTegic.value.DoubleValue
0.275

@<SCITEGIC>MOL_PROPERTY
Angle
SciTegic.value.DoubleValue
1.572

@<SCITEGIC>MOL_PROPERTY
Pdih
SciTegic.value.DoubleValue
4.880

@<SCITEGIC>MOL_PROPERTY
Idih
SciTegic.value.DoubleValue
0.000

@<SCITEGIC>MOL_PROPERTY
Tether
SciTegic.value.DoubleValue
0.000

@<TRIPOS>MOLECULE
guest-s12_vm2.mol2 : vm2 ligand conformer 198
          26          25           1
SMALL
USER_CHARGES
 
@<TRIPOS>ATOM
       1    N1      20.176997   18.473126   26.129246 N.4        1 MOL1        -0.4857
       2    H1      20.683015   18.490312   27.028914 H          1 MOL1         0.3650
       3    H2      19.917371   17.484053   25.993256 H          1 MOL1         0.3650
       4    C1      21.115186   18.924959   25.018205 C.3        1 MOL1         0.0209
       5    H3      22.025989   18.330782   25.128557 H          1 MOL1         0.0967
       6    H4      21.378715   19.971639   25.189353 H          1 MOL1         0.0967
       7    C2      20.588176   18.736960   23.578102 C.3        1 MOL1        -0.1378
       8    H5      21.448057   18.493233   22.942183 H          1 MOL1         0.0993
       9    H6      19.908966   17.875383   23.536562 H          1 MOL1         0.0993
      10    C3      19.901049   20.004031   23.012323 C.3        1 MOL1        -0.1338
      11    H7      20.639737   20.814237   22.940563 H          1 MOL1         0.0993
      12    H8      19.136860   20.357796   23.714400 H          1 MOL1         0.0993
      13    C4      19.224609   19.801955   21.631446 C.3        1 MOL1        -0.1338
      14    H9      18.413775   19.064923   21.712208 H          1 MOL1         0.0993
      15    H10     18.736355   20.748837   21.362137 H          1 MOL1         0.0993
      16    C5      20.189412   19.414381   20.480836 C.3        1 MOL1        -0.1313
      17    H11     21.188961   19.833311   20.662476 H          1 MOL1         0.0993
      18    H12     19.831183   19.881505   19.552682 H          1 MOL1         0.0993
      19    C6      20.280466   17.889086   20.240254 C.3        1 MOL1        -0.2328
      20    H13     20.661915   17.353939   21.116578 H          1 MOL1         0.1004
      21    H14     20.953759   17.672773   19.400737 H          1 MOL1         0.1004
      22    H15     19.295797   17.472089   19.992140 H          1 MOL1         0.1004
      23    C7      18.932105   19.345501   26.226588 C.3        1 MOL1        -0.0781
      24    H16     19.232364   20.387693   26.354788 H          1 MOL1         0.0978
      25    H17     18.344026   19.235174   25.313542 H          1 MOL1         0.0978
      26    H18     18.337623   19.024149   27.084718 H          1 MOL1         0.0978
@<TRIPOS>BOND
    1     1     2    1
    2     1     3    1
    3     1     4    1
    4     4     5    1
    5     4     6    1
    6     4     7    1
    7     7     8    1
    8     7     9    1
    9     7    10    1
   10    10    11    1
   11    10    12    1
   12    10    13    1
   13    13    14    1
   14    13    15    1
   15    13    16    1
   16    16    17    1
   17    16    18    1
   18    16    19    1
   19    19    20    1
   20    19    21    1
   21    19    22    1
   22     1    23    1
   23    23    24    1
   24    23    25    1
   25    23    26    1
@<TRIPOS>SUBSTRUCTURE
       1 MOL1            1 RESIDUE      1      MOL     
@<SCITEGIC>MOL_PROPERTY
VM2 Rank
SciTegic.value.IntegerValue
198

@<SCITEGIC>MOL_PROPERTY
Conf_Id
SciTegic.value.IntegerValue
162

@<SCITEGIC>MOL_PROPERTY
Probability
SciTegic.value.DoubleValue
0.00

@<SCITEGIC>MOL_PROPERTY
Sum Probability
SciTegic.value.DoubleValue
99.99

@<SCITEGIC>MOL_PROPERTY
Delta G
SciTegic.value.DoubleValue
5.602

@<SCITEGIC>MOL_PROPERTY
G
SciTegic.value.DoubleValue
81.068

@<SCITEGIC>MOL_PROPERTY
E
SciTegic.value.DoubleValue
48.306

@<SCITEGIC>MOL_PROPERTY
-TS
SciTegic.value.DoubleValue
32.762

@<SCITEGIC>MOL_PROPERTY
U+W
SciTegic.value.DoubleValue
26.844

@<SCITEGIC>MOL_PROPERTY
U
SciTegic.value.DoubleValue
76.536

@<SCITEGIC>MOL_PROPERTY
W
SciTegic.value.DoubleValue
-49.693

@<SCITEGIC>MOL_PROPERTY
W(PB)
SciTegic.value.DoubleValue
-51.899

@<SCITEGIC>MOL_PROPERTY
W(SA)
SciTegic.value.DoubleValue
2.206

@<SCITEGIC>MOL_PROPERTY
Valence
SciTegic.value.DoubleValue
6.954

@<SCITEGIC>MOL_PROPERTY
Coulomb
SciTegic.value.DoubleValue
69.035

@<SCITEGIC>MOL_PROPERTY
VdW
SciTegic.value.DoubleValue
0.547

@<SCITEGIC>MOL_PROPERTY
VdW6
SciTegic.value.DoubleValue
-8.376

@<SCITEGIC>MOL_PROPERTY
VdW12
SciTegic.value.DoubleValue
8.924

@<SCITEGIC>MOL_PROPERTY
Bond
SciTegic.value.DoubleValue
0.281

@<SCITEGIC>MOL_PROPERTY
Angle
SciTegic.value.DoubleValue
1.723

@<SCITEGIC>MOL_PROPERTY
Pdih
SciTegic.value.DoubleValue
4.950

@<SCITEGIC>MOL_PROPERTY
Idih
SciTegic.value.DoubleValue
0.000

@<SCITEGIC>MOL_PROPERTY
Tether
SciTegic.value.DoubleValue
0.000

@<TRIPOS>MOLECULE
guest-s12_vm2.mol2 : vm2 ligand conformer 199
          26          25           1
SMALL
USER_CHARGES
 
@<TRIPOS>ATOM
       1    N1      20.029404   18.514666   26.045031 N.4        1 MOL1        -0.4857
       2    H1      20.877584   18.004677   25.755340 H          1 MOL1         0.3650
       3    H2      19.649062   17.972001   26.836538 H          1 MOL1         0.3650
       4    C1      19.013919   18.535723   24.914191 C.3        1 MOL1         0.0209
       5    H3      18.391081   19.426266   25.029708 H          1 MOL1         0.0967
       6    H4      18.372031   17.661719   25.051317 H          1 MOL1         0.0967
       7    C2      19.605621   18.475043   23.488180 C.3        1 MOL1        -0.1378
       8    H5      20.186314   17.550468   23.372757 H          1 MOL1         0.0993
       9    H6      18.762897   18.408193   22.789968 H          1 MOL1         0.0993
      10    C3      20.481800   19.696239   23.117640 C.3        1 MOL1        -0.1338
      11    H7      21.312594   19.774499   23.830045 H          1 MOL1         0.0993
      12    H8      19.891475   20.616607   23.225574 H          1 MOL1         0.0993
      13    C4      21.091891   19.637585   21.692897 C.3        1 MOL1        -0.1338
      14    H9      21.722677   20.528513   21.566922 H          1 MOL1         0.0993
      15    H10     21.773861   18.780105   21.609809 H          1 MOL1         0.0993
      16    C5      20.055903   19.613256   20.539265 C.3        1 MOL1        -0.1313
      17    H11     20.443866   20.216233   19.706250 H          1 MOL1         0.0993
      18    H12     19.121691   20.099461   20.853073 H          1 MOL1         0.0993
      19    C6      19.769444   18.190274   20.004788 C.3        1 MOL1        -0.2328
      20    H13     20.683871   17.729762   19.608777 H          1 MOL1         0.1004
      21    H14     19.035661   18.226515   19.189218 H          1 MOL1         0.1004
      22    H15     19.370265   17.529595   20.782329 H          1 MOL1         0.1004
      23    C7      20.360017   19.927214   26.515009 C.3        1 MOL1        -0.0781
      24    H16     20.782071   20.501018   25.688875 H          1 MOL1         0.0978
      25    H17     19.445498   20.409100   26.867517 H          1 MOL1         0.0978
      26    H18     21.083554   19.871368   27.331363 H          1 MOL1         0.0978
@<TRIPOS>BOND
    1     1     2    1
    2     1     3    1
    3     1     4    1
    4     4     5    1
    5     4     6    1
    6     4     7    1
    7     7     8    1
    8     7     9    1
    9     7    10    1
   10    10    11    1
   11    10    12    1
   12    10    13    1
   13    13    14    1
   14    13    15    1
   15    13    16    1
   16    16    17    1
   17    16    18    1
   18    16    19    1
   19    19    20    1
   20    19    21    1
   21    19    22    1
   22     1    23    1
   23    23    24    1
   24    23    25    1
   25    23    26    1
@<TRIPOS>SUBSTRUCTURE
       1 MOL1            1 RESIDUE      1      MOL     
@<SCITEGIC>MOL_PROPERTY
VM2 Rank
SciTegic.value.IntegerValue
199

@<SCITEGIC>MOL_PROPERTY
Conf_Id
SciTegic.value.IntegerValue
217

@<SCITEGIC>MOL_PROPERTY
Probability
SciTegic.value.DoubleValue
0.00

@<SCITEGIC>MOL_PROPERTY
Sum Probability
SciTegic.value.DoubleValue
100.00

@<SCITEGIC>MOL_PROPERTY
Delta G
SciTegic.value.DoubleValue
5.622

@<SCITEGIC>MOL_PROPERTY
G
SciTegic.value.DoubleValue
81.088

@<SCITEGIC>MOL_PROPERTY
E
SciTegic.value.DoubleValue
48.324

@<SCITEGIC>MOL_PROPERTY
-TS
SciTegic.value.DoubleValue
32.763

@<SCITEGIC>MOL_PROPERTY
U+W
SciTegic.value.DoubleValue
26.863

@<SCITEGIC>MOL_PROPERTY
U
SciTegic.value.DoubleValue
76.526

@<SCITEGIC>MOL_PROPERTY
W
SciTegic.value.DoubleValue
-49.664

@<SCITEGIC>MOL_PROPERTY
W(PB)
SciTegic.value.DoubleValue
-51.856

@<SCITEGIC>MOL_PROPERTY
W(SA)
SciTegic.value.DoubleValue
2.192

@<SCITEGIC>MOL_PROPERTY
Valence
SciTegic.value.DoubleValue
6.989

@<SCITEGIC>MOL_PROPERTY
Coulomb
SciTegic.value.DoubleValue
69.059

@<SCITEGIC>MOL_PROPERTY
VdW
SciTegic.value.DoubleValue
0.479

@<SCITEGIC>MOL_PROPERTY
VdW6
SciTegic.value.DoubleValue
-8.314

@<SCITEGIC>MOL_PROPERTY
VdW12
SciTegic.value.DoubleValue
8.793

@<SCITEGIC>MOL_PROPERTY
Bond
SciTegic.value.DoubleValue
0.275

@<SCITEGIC>MOL_PROPERTY
Angle
SciTegic.value.DoubleValue
1.646

@<SCITEGIC>MOL_PROPERTY
Pdih
SciTegic.value.DoubleValue
5.068

@<SCITEGIC>MOL_PROPERTY
Idih
SciTegic.value.DoubleValue
0.000

@<SCITEGIC>MOL_PROPERTY
Tether
SciTegic.value.DoubleValue
0.000

@<TRIPOS>MOLECULE
guest-s12_vm2.mol2 : vm2 ligand conformer 200
          26          25           1
SMALL
USER_CHARGES
 
@<TRIPOS>ATOM
       1    N1      19.992048   18.511073   26.043837 N.4        1 MOL1        -0.4857
       2    H1      20.417744   18.050910   26.863997 H          1 MOL1         0.3650
       3    H2      19.286639   17.842394   25.699327 H          1 MOL1         0.3650
       4    C1      21.058979   18.744451   24.986648 C.3        1 MOL1         0.0209
       5    H3      21.852810   18.017011   25.174719 H          1 MOL1         0.0967
       6    H4      21.479685   19.741524   25.138924 H          1 MOL1         0.0967
       7    C2      20.592958   18.575573   23.523222 C.3        1 MOL1        -0.1378
       8    H5      21.478543   18.685286   22.886157 H          1 MOL1         0.0993
       9    H6      20.220544   17.553590   23.374151 H          1 MOL1         0.0993
      10    C3      19.516230   19.597153   23.083512 C.3        1 MOL1        -0.1338
      11    H7      19.899292   20.617032   23.226071 H          1 MOL1         0.0993
      12    H8      18.638907   19.500696   23.735330 H          1 MOL1         0.0993
      13    C4      19.032034   19.426763   21.619935 C.3        1 MOL1        -0.1338
      14    H9      18.545183   18.449686   21.495212 H          1 MOL1         0.0993
      15    H10     18.244464   20.172566   21.443790 H          1 MOL1         0.0993
      16    C5      20.129817   19.621030   20.542039 C.3        1 MOL1        -0.1313
      17    H11     20.922087   20.283681   20.917305 H          1 MOL1         0.0993
      18    H12     19.687337   20.139370   19.679749 H          1 MOL1         0.0993
      19    C6      20.734825   18.289397   20.038734 C.3        1 MOL1        -0.2328
      20    H13     21.203760   17.717213   20.846892 H          1 MOL1         0.1004
      21    H14     21.501514   18.479368   19.276497 H          1 MOL1         0.1004
      22    H15     19.962472   17.656544   19.582619 H          1 MOL1         0.1004
      23    C7      19.351110   19.824560   26.479073 C.3        1 MOL1        -0.0781
      24    H16     18.880812   20.307037   25.621219 H          1 MOL1         0.0978
      25    H17     18.598416   19.618230   27.243230 H          1 MOL1         0.0978
      26    H18     20.122608   20.478671   26.891081 H          1 MOL1         0.0978
@<TRIPOS>BOND
    1     1     2    1
    2     1     3    1
    3     1     4    1
    4     4     5    1
    5     4     6    1
    6     4     7    1
    7     7     8    1
    8     7     9    1
    9     7    10    1
   10    10    11    1
   11    10    12    1
   12    10    13    1
   13    13    14    1
   14    13    15    1
   15    13    16    1
   16    16    17    1
   17    16    18    1
   18    16    19    1
   19    19    20    1
   20    19    21    1
   21    19    22    1
   22     1    23    1
   23    23    24    1
   24    23    25    1
   25    23    26    1
@<TRIPOS>SUBSTRUCTURE
       1 MOL1            1 RESIDUE      1      MOL     
@<SCITEGIC>MOL_PROPERTY
VM2 Rank
SciTegic.value.IntegerValue
200

@<SCITEGIC>MOL_PROPERTY
Conf_Id
SciTegic.value.IntegerValue
1566

@<SCITEGIC>MOL_PROPERTY
Probability
SciTegic.value.DoubleValue
0.00

@<SCITEGIC>MOL_PROPERTY
Sum Probability
SciTegic.value.DoubleValue
100.00

@<SCITEGIC>MOL_PROPERTY
Delta G
SciTegic.value.DoubleValue
5.714

@<SCITEGIC>MOL_PROPERTY
G
SciTegic.value.DoubleValue
81.180

@<SCITEGIC>MOL_PROPERTY
E
SciTegic.value.DoubleValue
48.417

@<SCITEGIC>MOL_PROPERTY
-TS
SciTegic.value.DoubleValue
32.763

@<SCITEGIC>MOL_PROPERTY
U+W
SciTegic.value.DoubleValue
26.955

@<SCITEGIC>MOL_PROPERTY
U
SciTegic.value.DoubleValue
76.526

@<SCITEGIC>MOL_PROPERTY
W
SciTegic.value.DoubleValue
-49.572

@<SCITEGIC>MOL_PROPERTY
W(PB)
SciTegic.value.DoubleValue
-51.787

@<SCITEGIC>MOL_PROPERTY
W(SA)
SciTegic.value.DoubleValue
2.215

@<SCITEGIC>MOL_PROPERTY
Valence
SciTegic.value.DoubleValue
6.989

@<SCITEGIC>MOL_PROPERTY
Coulomb
SciTegic.value.DoubleValue
69.059

@<SCITEGIC>MOL_PROPERTY
VdW
SciTegic.value.DoubleValue
0.479

@<SCITEGIC>MOL_PROPERTY
VdW6
SciTegic.value.DoubleValue
-8.314

@<SCITEGIC>MOL_PROPERTY
VdW12
SciTegic.value.DoubleValue
8.793

@<SCITEGIC>MOL_PROPERTY
Bond
SciTegic.value.DoubleValue
0.275

@<SCITEGIC>MOL_PROPERTY
Angle
SciTegic.value.DoubleValue
1.646

@<SCITEGIC>MOL_PROPERTY
Pdih
SciTegic.value.DoubleValue
5.068

@<SCITEGIC>MOL_PROPERTY
Idih
SciTegic.value.DoubleValue
0.000

@<SCITEGIC>MOL_PROPERTY
Tether
SciTegic.value.DoubleValue
0.000

@<TRIPOS>MOLECULE
guest-s12_vm2.mol2 : vm2 ligand conformer 201
          26          25           1
SMALL
USER_CHARGES
 
@<TRIPOS>ATOM
       1    N1      20.644242   19.273603   25.723885 N.4        1 MOL1        -0.4857
       2    H1      21.572393   19.538572   26.089767 H          1 MOL1         0.3650
       3    H2      20.226817   18.690067   26.465050 H          1 MOL1         0.3650
       4    C1      20.818932   18.455091   24.452149 C.3        1 MOL1         0.0209
       5    H3      21.540756   17.669817   24.690931 H          1 MOL1         0.0967
       6    H4      21.265321   19.096806   23.691093 H          1 MOL1         0.0967
       7    C2      19.535509   17.783422   23.910881 C.3        1 MOL1        -0.1378
       8    H5      19.800928   16.811737   23.474148 H          1 MOL1         0.0993
       9    H6      18.872711   17.555992   24.756208 H          1 MOL1         0.0993
      10    C3      18.759559   18.614538   22.853651 C.3        1 MOL1        -0.1338
      11    H7      18.725836   19.674119   23.131545 H          1 MOL1         0.0993
      12    H8      17.713699   18.278198   22.866773 H          1 MOL1         0.0993
      13    C4      19.276853   18.454720   21.398078 C.3        1 MOL1        -0.1338
      14    H9      19.231288   17.393100   21.118718 H          1 MOL1         0.0993
      15    H10     18.579594   18.968356   20.721863 H          1 MOL1         0.0993
      16    C5      20.707121   18.981675   21.121951 C.3        1 MOL1        -0.1313
      17    H11     20.959024   18.768122   20.073757 H          1 MOL1         0.0993
      18    H12     21.440852   18.426711   21.720361 H          1 MOL1         0.0993
      19    C6      20.858159   20.501386   21.362648 C.3        1 MOL1        -0.2328
      20    H13     20.142670   21.068404   20.753164 H          1 MOL1         0.1004
      21    H14     21.867779   20.835289   21.090618 H          1 MOL1         0.1004
      22    H15     20.694245   20.765998   22.413659 H          1 MOL1         0.1004
      23    C7      19.807626   20.525566   25.493758 C.3        1 MOL1        -0.0781
      24    H16     18.798502   20.233556   25.196826 H          1 MOL1         0.0978
      25    H17     19.763739   21.100507   26.421434 H          1 MOL1         0.0978
      26    H18     20.269299   21.127504   24.708384 H          1 MOL1         0.0978
@<TRIPOS>BOND
    1     1     2    1
    2     1     3    1
    3     1     4    1
    4     4     5    1
    5     4     6    1
    6     4     7    1
    7     7     8    1
    8     7     9    1
    9     7    10    1
   10    10    11    1
   11    10    12    1
   12    10    13    1
   13    13    14    1
   14    13    15    1
   15    13    16    1
   16    16    17    1
   17    16    18    1
   18    16    19    1
   19    19    20    1
   20    19    21    1
   21    19    22    1
   22     1    23    1
   23    23    24    1
   24    23    25    1
   25    23    26    1
@<TRIPOS>SUBSTRUCTURE
       1 MOL1            1 RESIDUE      1      MOL     
@<SCITEGIC>MOL_PROPERTY
VM2 Rank
SciTegic.value.IntegerValue
201

@<SCITEGIC>MOL_PROPERTY
Conf_Id
SciTegic.value.IntegerValue
830

@<SCITEGIC>MOL_PROPERTY
Probability
SciTegic.value.DoubleValue
0.00

@<SCITEGIC>MOL_PROPERTY
Sum Probability
SciTegic.value.DoubleValue
100.00

@<SCITEGIC>MOL_PROPERTY
Delta G
SciTegic.value.DoubleValue
5.768

@<SCITEGIC>MOL_PROPERTY
G
SciTegic.value.DoubleValue
81.234

@<SCITEGIC>MOL_PROPERTY
E
SciTegic.value.DoubleValue
47.627

@<SCITEGIC>MOL_PROPERTY
-TS
SciTegic.value.DoubleValue
33.608

@<SCITEGIC>MOL_PROPERTY
U+W
SciTegic.value.DoubleValue
26.165

@<SCITEGIC>MOL_PROPERTY
U
SciTegic.value.DoubleValue
76.612

@<SCITEGIC>MOL_PROPERTY
W
SciTegic.value.DoubleValue
-50.447

@<SCITEGIC>MOL_PROPERTY
W(PB)
SciTegic.value.DoubleValue
-52.593

@<SCITEGIC>MOL_PROPERTY
W(SA)
SciTegic.value.DoubleValue
2.146

@<SCITEGIC>MOL_PROPERTY
Valence
SciTegic.value.DoubleValue
6.664

@<SCITEGIC>MOL_PROPERTY
Coulomb
SciTegic.value.DoubleValue
69.963

@<SCITEGIC>MOL_PROPERTY
VdW
SciTegic.value.DoubleValue
-0.016

@<SCITEGIC>MOL_PROPERTY
VdW6
SciTegic.value.DoubleValue
-9.993

@<SCITEGIC>MOL_PROPERTY
VdW12
SciTegic.value.DoubleValue
9.977

@<SCITEGIC>MOL_PROPERTY
Bond
SciTegic.value.DoubleValue
0.317

@<SCITEGIC>MOL_PROPERTY
Angle
SciTegic.value.DoubleValue
2.088

@<SCITEGIC>MOL_PROPERTY
Pdih
SciTegic.value.DoubleValue
4.259

@<SCITEGIC>MOL_PROPERTY
Idih
SciTegic.value.DoubleValue
0.000

@<SCITEGIC>MOL_PROPERTY
Tether
SciTegic.value.DoubleValue
0.000

@<TRIPOS>MOLECULE
guest-s12_vm2.mol2 : vm2 ligand conformer 202
          26          25           1
SMALL
USER_CHARGES
 
@<TRIPOS>ATOM
       1    N1      19.766050   18.210260   25.347009 N.4        1 MOL1        -0.4857
       2    H1      19.845626   17.556980   26.142310 H          1 MOL1         0.3650
       3    H2      19.747926   17.611990   24.507906 H          1 MOL1         0.3650
       4    C1      20.981648   19.119952   25.317237 C.3        1 MOL1         0.0209
       5    H3      21.778757   18.594008   25.848893 H          1 MOL1         0.0967
       6    H4      20.745027   20.021745   25.887371 H          1 MOL1         0.0967
       7    C2      21.515140   19.498942   23.915702 C.3        1 MOL1        -0.1378
       8    H5      22.427518   20.089564   24.071932 H          1 MOL1         0.0993
       9    H6      21.839525   18.595861   23.385935 H          1 MOL1         0.0993
      10    C3      20.544769   20.342559   23.045591 C.3        1 MOL1        -0.1338
      11    H7      21.136687   20.999764   22.393648 H          1 MOL1         0.0993
      12    H8      19.970102   21.017069   23.694880 H          1 MOL1         0.0993
      13    C4      19.574564   19.523309   22.153643 C.3        1 MOL1        -0.1338
      14    H9      19.018828   18.793570   22.752939 H          1 MOL1         0.0993
      15    H10     18.823976   20.211100   21.740270 H          1 MOL1         0.0993
      16    C5      20.278264   18.799382   20.980620 C.3        1 MOL1        -0.1313
      17    H11     21.003018   18.067656   21.360036 H          1 MOL1         0.0993
      18    H12     20.846038   19.526385   20.383250 H          1 MOL1         0.0993
      19    C6      19.264476   18.073356   20.070585 C.3        1 MOL1        -0.2328
      20    H13     18.546131   18.780607   19.635884 H          1 MOL1         0.1004
      21    H14     18.701660   17.316013   20.631671 H          1 MOL1         0.1004
      22    H15     19.779217   17.566396   19.244114 H          1 MOL1         0.1004
      23    C7      18.483089   19.022240   25.486614 C.3        1 MOL1        -0.0781
      24    H16     18.391309   19.706989   24.641901 H          1 MOL1         0.0978
      25    H17     17.629122   18.341478   25.504609 H          1 MOL1         0.0978
      26    H18     18.519935   19.590690   26.418444 H          1 MOL1         0.0978
@<TRIPOS>BOND
    1     1     2    1
    2     1     3    1
    3     1     4    1
    4     4     5    1
    5     4     6    1
    6     4     7    1
    7     7     8    1
    8     7     9    1
    9     7    10    1
   10    10    11    1
   11    10    12    1
   12    10    13    1
   13    13    14    1
   14    13    15    1
   15    13    16    1
   16    16    17    1
   17    16    18    1
   18    16    19    1
   19    19    20    1
   20    19    21    1
   21    19    22    1
   22     1    23    1
   23    23    24    1
   24    23    25    1
   25    23    26    1
@<TRIPOS>SUBSTRUCTURE
       1 MOL1            1 RESIDUE      1      MOL     
@<SCITEGIC>MOL_PROPERTY
VM2 Rank
SciTegic.value.IntegerValue
202

@<SCITEGIC>MOL_PROPERTY
Conf_Id
SciTegic.value.IntegerValue
1359

@<SCITEGIC>MOL_PROPERTY
Probability
SciTegic.value.DoubleValue
0.00

@<SCITEGIC>MOL_PROPERTY
Sum Probability
SciTegic.value.DoubleValue
100.00

@<SCITEGIC>MOL_PROPERTY
Delta G
SciTegic.value.DoubleValue
5.773

@<SCITEGIC>MOL_PROPERTY
G
SciTegic.value.DoubleValue
81.239

@<SCITEGIC>MOL_PROPERTY
E
SciTegic.value.DoubleValue
48.416

@<SCITEGIC>MOL_PROPERTY
-TS
SciTegic.value.DoubleValue
32.824

@<SCITEGIC>MOL_PROPERTY
U+W
SciTegic.value.DoubleValue
26.954

@<SCITEGIC>MOL_PROPERTY
U
SciTegic.value.DoubleValue
77.039

@<SCITEGIC>MOL_PROPERTY
W
SciTegic.value.DoubleValue
-50.085

@<SCITEGIC>MOL_PROPERTY
W(PB)
SciTegic.value.DoubleValue
-52.291

@<SCITEGIC>MOL_PROPERTY
W(SA)
SciTegic.value.DoubleValue
2.206

@<SCITEGIC>MOL_PROPERTY
Valence
SciTegic.value.DoubleValue
6.724

@<SCITEGIC>MOL_PROPERTY
Coulomb
SciTegic.value.DoubleValue
70.181

@<SCITEGIC>MOL_PROPERTY
VdW
SciTegic.value.DoubleValue
0.134

@<SCITEGIC>MOL_PROPERTY
VdW6
SciTegic.value.DoubleValue
-8.757

@<SCITEGIC>MOL_PROPERTY
VdW12
SciTegic.value.DoubleValue
8.891

@<SCITEGIC>MOL_PROPERTY
Bond
SciTegic.value.DoubleValue
0.279

@<SCITEGIC>MOL_PROPERTY
Angle
SciTegic.value.DoubleValue
1.699

@<SCITEGIC>MOL_PROPERTY
Pdih
SciTegic.value.DoubleValue
4.745

@<SCITEGIC>MOL_PROPERTY
Idih
SciTegic.value.DoubleValue
0.000

@<SCITEGIC>MOL_PROPERTY
Tether
SciTegic.value.DoubleValue
0.000

@<TRIPOS>MOLECULE
guest-s12_vm2.mol2 : vm2 ligand conformer 203
          26          25           1
SMALL
USER_CHARGES
 
@<TRIPOS>ATOM
       1    N1      20.714710   19.243815   24.991843 N.4        1 MOL1        -0.4857
       2    H1      21.236197   19.277733   24.103577 H          1 MOL1         0.3650
       3    H2      21.122156   18.461879   25.527960 H          1 MOL1         0.3650
       4    C1      19.249295   18.976098   24.711889 C.3        1 MOL1         0.0209
       5    H3      18.845146   19.828053   24.161877 H          1 MOL1         0.0967
       6    H4      18.732600   18.922756   25.673519 H          1 MOL1         0.0967
       7    C2      18.993011   17.678003   23.922056 C.3        1 MOL1        -0.1378
       8    H5      19.291841   16.825080   24.545783 H          1 MOL1         0.0993
       9    H6      17.911355   17.571700   23.765880 H          1 MOL1         0.0993
      10    C3      19.719859   17.575725   22.553813 C.3        1 MOL1        -0.1338
      11    H7      19.481991   16.586668   22.138337 H          1 MOL1         0.0993
      12    H8      20.807208   17.568162   22.693185 H          1 MOL1         0.0993
      13    C4      19.297383   18.636913   21.500048 C.3        1 MOL1        -0.1338
      14    H9      19.476311   18.217850   20.500134 H          1 MOL1         0.0993
      15    H10     18.211906   18.795638   21.560174 H          1 MOL1         0.0993
      16    C5      20.022402   20.006855   21.574745 C.3        1 MOL1        -0.1313
      17    H11     19.838994   20.500753   22.534999 H          1 MOL1         0.0993
      18    H12     19.579904   20.668793   20.817158 H          1 MOL1         0.0993
      19    C6      21.543531   19.919095   21.310583 C.3        1 MOL1        -0.2328
      20    H13     21.984760   20.923760   21.277556 H          1 MOL1         0.1004
      21    H14     21.747401   19.434638   20.346806 H          1 MOL1         0.1004
      22    H15     22.066954   19.356532   22.091758 H          1 MOL1         0.1004
      23    C7      20.867810   20.553497   25.752022 C.3        1 MOL1        -0.0781
      24    H16     20.328258   20.483658   26.699075 H          1 MOL1         0.0978
      25    H17     21.927712   20.734719   25.943993 H          1 MOL1         0.0978
      26    H18     20.457036   21.367881   25.151268 H          1 MOL1         0.0978
@<TRIPOS>BOND
    1     1     2    1
    2     1     3    1
    3     1     4    1
    4     4     5    1
    5     4     6    1
    6     4     7    1
    7     7     8    1
    8     7     9    1
    9     7    10    1
   10    10    11    1
   11    10    12    1
   12    10    13    1
   13    13    14    1
   14    13    15    1
   15    13    16    1
   16    16    17    1
   17    16    18    1
   18    16    19    1
   19    19    20    1
   20    19    21    1
   21    19    22    1
   22     1    23    1
   23    23    24    1
   24    23    25    1
   25    23    26    1
@<TRIPOS>SUBSTRUCTURE
       1 MOL1            1 RESIDUE      1      MOL     
@<SCITEGIC>MOL_PROPERTY
VM2 Rank
SciTegic.value.IntegerValue
203

@<SCITEGIC>MOL_PROPERTY
Conf_Id
SciTegic.value.IntegerValue
187

@<SCITEGIC>MOL_PROPERTY
Probability
SciTegic.value.DoubleValue
0.00

@<SCITEGIC>MOL_PROPERTY
Sum Probability
SciTegic.value.DoubleValue
100.00

@<SCITEGIC>MOL_PROPERTY
Delta G
SciTegic.value.DoubleValue
5.802

@<SCITEGIC>MOL_PROPERTY
G
SciTegic.value.DoubleValue
81.268

@<SCITEGIC>MOL_PROPERTY
E
SciTegic.value.DoubleValue
48.125

@<SCITEGIC>MOL_PROPERTY
-TS
SciTegic.value.DoubleValue
33.142

@<SCITEGIC>MOL_PROPERTY
U+W
SciTegic.value.DoubleValue
26.663

@<SCITEGIC>MOL_PROPERTY
U
SciTegic.value.DoubleValue
75.617

@<SCITEGIC>MOL_PROPERTY
W
SciTegic.value.DoubleValue
-48.954

@<SCITEGIC>MOL_PROPERTY
W(PB)
SciTegic.value.DoubleValue
-51.136

@<SCITEGIC>MOL_PROPERTY
W(SA)
SciTegic.value.DoubleValue
2.182

@<SCITEGIC>MOL_PROPERTY
Valence
SciTegic.value.DoubleValue
5.117

@<SCITEGIC>MOL_PROPERTY
Coulomb
SciTegic.value.DoubleValue
70.837

@<SCITEGIC>MOL_PROPERTY
VdW
SciTegic.value.DoubleValue
-0.337

@<SCITEGIC>MOL_PROPERTY
VdW6
SciTegic.value.DoubleValue
-9.231

@<SCITEGIC>MOL_PROPERTY
VdW12
SciTegic.value.DoubleValue
8.894

@<SCITEGIC>MOL_PROPERTY
Bond
SciTegic.value.DoubleValue
0.293

@<SCITEGIC>MOL_PROPERTY
Angle
SciTegic.value.DoubleValue
2.155

@<SCITEGIC>MOL_PROPERTY
Pdih
SciTegic.value.DoubleValue
2.670

@<SCITEGIC>MOL_PROPERTY
Idih
SciTegic.value.DoubleValue
0.000

@<SCITEGIC>MOL_PROPERTY
Tether
SciTegic.value.DoubleValue
0.000

@<TRIPOS>MOLECULE
guest-s12_vm2.mol2 : vm2 ligand conformer 204
          26          25           1
SMALL
USER_CHARGES
 
@<TRIPOS>ATOM
       1    N1      20.358376   18.270316   25.368056 N.4        1 MOL1        -0.4857
       2    H1      20.554757   17.693705   24.536607 H          1 MOL1         0.3650
       3    H2      20.355840   17.608792   26.160516 H          1 MOL1         0.3650
       4    C1      18.990254   18.918099   25.246696 C.3        1 MOL1         0.0209
       5    H3      19.000794   19.844981   25.825534 H          1 MOL1         0.0967
       6    H4      18.279481   18.239334   25.724962 H          1 MOL1         0.0967
       7    C2      18.491163   19.192335   23.808556 C.3        1 MOL1        -0.1378
       8    H5      18.392375   18.246326   23.263816 H          1 MOL1         0.0993
       9    H6      17.470234   19.586912   23.896245 H          1 MOL1         0.0993
      10    C3      19.331243   20.219518   23.002600 C.3        1 MOL1        -0.1338
      11    H7      19.712117   20.990884   23.685763 H          1 MOL1         0.0993
      12    H8      18.666754   20.749365   22.306159 H          1 MOL1         0.0993
      13    C4      20.506029   19.617743   22.186644 C.3        1 MOL1        -0.1338
      14    H9      21.130598   20.444956   21.822021 H          1 MOL1         0.0993
      15    H10     21.153372   19.009956   22.828560 H          1 MOL1         0.0993
      16    C5      20.045686   18.775828   20.972350 C.3        1 MOL1        -0.1313
      17    H11     19.387027   19.378515   20.331501 H          1 MOL1         0.0993
      18    H12     19.457511   17.911017   21.305216 H          1 MOL1         0.0993
      19    C6      21.245665   18.274206   20.140800 C.3        1 MOL1        -0.2328
      20    H13     20.902204   17.680253   19.283902 H          1 MOL1         0.1004
      21    H14     21.908107   17.641063   20.745326 H          1 MOL1         0.1004
      22    H15     21.836353   19.114151   19.752512 H          1 MOL1         0.1004
      23    C7      21.439585   19.321954   25.591298 C.3        1 MOL1        -0.0781
      24    H16     21.224395   19.864957   26.514142 H          1 MOL1         0.0978
      25    H17     22.409256   18.826046   25.673943 H          1 MOL1         0.0978
      26    H18     21.451209   20.017097   24.750178 H          1 MOL1         0.0978
@<TRIPOS>BOND
    1     1     2    1
    2     1     3    1
    3     1     4    1
    4     4     5    1
    5     4     6    1
    6     4     7    1
    7     7     8    1
    8     7     9    1
    9     7    10    1
   10    10    11    1
   11    10    12    1
   12    10    13    1
   13    13    14    1
   14    13    15    1
   15    13    16    1
   16    16    17    1
   17    16    18    1
   18    16    19    1
   19    19    20    1
   20    19    21    1
   21    19    22    1
   22     1    23    1
   23    23    24    1
   24    23    25    1
   25    23    26    1
@<TRIPOS>SUBSTRUCTURE
       1 MOL1            1 RESIDUE      1      MOL     
@<SCITEGIC>MOL_PROPERTY
VM2 Rank
SciTegic.value.IntegerValue
204

@<SCITEGIC>MOL_PROPERTY
Conf_Id
SciTegic.value.IntegerValue
1344

@<SCITEGIC>MOL_PROPERTY
Probability
SciTegic.value.DoubleValue
0.00

@<SCITEGIC>MOL_PROPERTY
Sum Probability
SciTegic.value.DoubleValue
100.00

@<SCITEGIC>MOL_PROPERTY
Delta G
SciTegic.value.DoubleValue
5.810

@<SCITEGIC>MOL_PROPERTY
G
SciTegic.value.DoubleValue
81.276

@<SCITEGIC>MOL_PROPERTY
E
SciTegic.value.DoubleValue
48.451

@<SCITEGIC>MOL_PROPERTY
-TS
SciTegic.value.DoubleValue
32.824

@<SCITEGIC>MOL_PROPERTY
U+W
SciTegic.value.DoubleValue
26.990

@<SCITEGIC>MOL_PROPERTY
U
SciTegic.value.DoubleValue
77.039

@<SCITEGIC>MOL_PROPERTY
W
SciTegic.value.DoubleValue
-50.050

@<SCITEGIC>MOL_PROPERTY
W(PB)
SciTegic.value.DoubleValue
-52.249

@<SCITEGIC>MOL_PROPERTY
W(SA)
SciTegic.value.DoubleValue
2.200

@<SCITEGIC>MOL_PROPERTY
Valence
SciTegic.value.DoubleValue
6.724

@<SCITEGIC>MOL_PROPERTY
Coulomb
SciTegic.value.DoubleValue
70.181

@<SCITEGIC>MOL_PROPERTY
VdW
SciTegic.value.DoubleValue
0.134

@<SCITEGIC>MOL_PROPERTY
VdW6
SciTegic.value.DoubleValue
-8.757

@<SCITEGIC>MOL_PROPERTY
VdW12
SciTegic.value.DoubleValue
8.891

@<SCITEGIC>MOL_PROPERTY
Bond
SciTegic.value.DoubleValue
0.279

@<SCITEGIC>MOL_PROPERTY
Angle
SciTegic.value.DoubleValue
1.699

@<SCITEGIC>MOL_PROPERTY
Pdih
SciTegic.value.DoubleValue
4.746

@<SCITEGIC>MOL_PROPERTY
Idih
SciTegic.value.DoubleValue
0.000

@<SCITEGIC>MOL_PROPERTY
Tether
SciTegic.value.DoubleValue
0.000

@<TRIPOS>MOLECULE
guest-s12_vm2.mol2 : vm2 ligand conformer 205
          26          25           1
SMALL
USER_CHARGES
 
@<TRIPOS>ATOM
       1    N1      19.249140   19.091877   24.940015 N.4        1 MOL1        -0.4857
       2    H1      18.974070   18.239201   25.452007 H          1 MOL1         0.3650
       3    H2      18.795187   19.024641   24.017233 H          1 MOL1         0.3650
       4    C1      20.754230   19.132107   24.765170 C.3        1 MOL1         0.0209
       5    H3      21.202358   19.178792   25.760938 H          1 MOL1         0.0967
       6    H4      21.012710   20.052753   24.238598 H          1 MOL1         0.0967
       7    C2      21.325616   17.919811   24.004626 C.3        1 MOL1        -0.1378
       8    H5      22.414324   18.038496   23.925251 H          1 MOL1         0.0993
       9    H6      21.164990   17.019260   24.612094 H          1 MOL1         0.0993
      10    C3      20.732646   17.680720   22.589678 C.3        1 MOL1        -0.1338
      11    H7      19.662881   17.449549   22.652713 H          1 MOL1         0.0993
      12    H8      21.196554   16.764412   22.199029 H          1 MOL1         0.0993
      13    C4      21.001409   18.813572   21.560389 C.3        1 MOL1        -0.1338
      14    H9      22.024408   19.190894   21.695179 H          1 MOL1         0.0993
      15    H10     20.982561   18.374013   20.553469 H          1 MOL1         0.0993
      16    C5      20.007671   20.005322   21.574245 C.3        1 MOL1        -0.1313
      17    H11     20.357107   20.749411   20.844773 H          1 MOL1         0.0993
      18    H12     20.018275   20.519272   22.541406 H          1 MOL1         0.0993
      19    C6      18.559114   19.609706   21.204806 C.3        1 MOL1        -0.2328
      20    H13     18.526829   19.100983   20.232548 H          1 MOL1         0.1004
      21    H14     17.924785   20.502860   21.133882 H          1 MOL1         0.1004
      22    H15     18.108708   18.945993   21.951335 H          1 MOL1         0.1004
      23    C7      18.778175   20.336885   25.678071 C.3        1 MOL1        -0.0781
      24    H16     19.054377   21.222468   25.101603 H          1 MOL1         0.0978
      25    H17     17.692851   20.295720   25.794118 H          1 MOL1         0.0978
      26    H18     19.252999   20.372234   26.661024 H          1 MOL1         0.0978
@<TRIPOS>BOND
    1     1     2    1
    2     1     3    1
    3     1     4    1
    4     4     5    1
    5     4     6    1
    6     4     7    1
    7     7     8    1
    8     7     9    1
    9     7    10    1
   10    10    11    1
   11    10    12    1
   12    10    13    1
   13    13    14    1
   14    13    15    1
   15    13    16    1
   16    16    17    1
   17    16    18    1
   18    16    19    1
   19    19    20    1
   20    19    21    1
   21    19    22    1
   22     1    23    1
   23    23    24    1
   24    23    25    1
   25    23    26    1
@<TRIPOS>SUBSTRUCTURE
       1 MOL1            1 RESIDUE      1      MOL     
@<SCITEGIC>MOL_PROPERTY
VM2 Rank
SciTegic.value.IntegerValue
205

@<SCITEGIC>MOL_PROPERTY
Conf_Id
SciTegic.value.IntegerValue
551

@<SCITEGIC>MOL_PROPERTY
Probability
SciTegic.value.DoubleValue
0.00

@<SCITEGIC>MOL_PROPERTY
Sum Probability
SciTegic.value.DoubleValue
100.00

@<SCITEGIC>MOL_PROPERTY
Delta G
SciTegic.value.DoubleValue
5.838

@<SCITEGIC>MOL_PROPERTY
G
SciTegic.value.DoubleValue
81.304

@<SCITEGIC>MOL_PROPERTY
E
SciTegic.value.DoubleValue
48.162

@<SCITEGIC>MOL_PROPERTY
-TS
SciTegic.value.DoubleValue
33.142

@<SCITEGIC>MOL_PROPERTY
U+W
SciTegic.value.DoubleValue
26.700

@<SCITEGIC>MOL_PROPERTY
U
SciTegic.value.DoubleValue
75.617

@<SCITEGIC>MOL_PROPERTY
W
SciTegic.value.DoubleValue
-48.917

@<SCITEGIC>MOL_PROPERTY
W(PB)
SciTegic.value.DoubleValue
-51.101

@<SCITEGIC>MOL_PROPERTY
W(SA)
SciTegic.value.DoubleValue
2.184

@<SCITEGIC>MOL_PROPERTY
Valence
SciTegic.value.DoubleValue
5.117

@<SCITEGIC>MOL_PROPERTY
Coulomb
SciTegic.value.DoubleValue
70.837

@<SCITEGIC>MOL_PROPERTY
VdW
SciTegic.value.DoubleValue
-0.337

@<SCITEGIC>MOL_PROPERTY
VdW6
SciTegic.value.DoubleValue
-9.231

@<SCITEGIC>MOL_PROPERTY
VdW12
SciTegic.value.DoubleValue
8.894

@<SCITEGIC>MOL_PROPERTY
Bond
SciTegic.value.DoubleValue
0.293

@<SCITEGIC>MOL_PROPERTY
Angle
SciTegic.value.DoubleValue
2.154

@<SCITEGIC>MOL_PROPERTY
Pdih
SciTegic.value.DoubleValue
2.670

@<SCITEGIC>MOL_PROPERTY
Idih
SciTegic.value.DoubleValue
0.000

@<SCITEGIC>MOL_PROPERTY
Tether
SciTegic.value.DoubleValue
0.000

@<TRIPOS>MOLECULE
guest-s12_vm2.mol2 : vm2 ligand conformer 206
          26          25           1
SMALL
USER_CHARGES
 
@<TRIPOS>ATOM
       1    N1      20.464312   18.770532   25.685253 N.4        1 MOL1        -0.4857
       2    H1      21.146793   18.035599   25.443660 H          1 MOL1         0.3650
       3    H2      19.775349   18.313305   26.302546 H          1 MOL1         0.3650
       4    C1      19.783593   19.286149   24.433615 C.3        1 MOL1         0.0209
       5    H3      20.543472   19.771402   23.818948 H          1 MOL1         0.0967
       6    H4      19.055465   20.042873   24.736217 H          1 MOL1         0.0967
       7    C2      19.074702   18.180765   23.626389 C.3        1 MOL1        -0.1378
       8    H5      19.778714   17.379370   23.366942 H          1 MOL1         0.0993
       9    H6      18.312042   17.724842   24.271696 H          1 MOL1         0.0993
      10    C3      18.382957   18.715484   22.348001 C.3        1 MOL1        -0.1338
      11    H7      17.925225   19.693609   22.551287 H          1 MOL1         0.0993
      12    H8      17.546754   18.043257   22.110568 H          1 MOL1         0.0993
      13    C4      19.281050   18.801905   21.083917 C.3        1 MOL1        -0.1338
      14    H9      19.644727   17.801283   20.812339 H          1 MOL1         0.0993
      15    H10     18.638854   19.114709   20.248881 H          1 MOL1         0.0993
      16    C5      20.467291   19.795859   21.168830 C.3        1 MOL1        -0.1313
      17    H11     20.230463   20.619349   21.855975 H          1 MOL1         0.0993
      18    H12     20.603755   20.262167   20.182946 H          1 MOL1         0.0993
      19    C6      21.802500   19.120107   21.560736 C.3        1 MOL1        -0.2328
      20    H13     22.100735   18.380565   20.806295 H          1 MOL1         0.1004
      21    H14     21.739121   18.604730   22.525037 H          1 MOL1         0.1004
      22    H15     22.605396   19.865297   21.630879 H          1 MOL1         0.1004
      23    C7      21.151596   19.919199   26.410259 C.3        1 MOL1        -0.0781
      24    H16     20.405489   20.667985   26.685180 H          1 MOL1         0.0978
      25    H17     21.637625   19.535185   27.309942 H          1 MOL1         0.0978
      26    H18     21.898115   20.365534   25.749619 H          1 MOL1         0.0978
@<TRIPOS>BOND
    1     1     2    1
    2     1     3    1
    3     1     4    1
    4     4     5    1
    5     4     6    1
    6     4     7    1
    7     7     8    1
    8     7     9    1
    9     7    10    1
   10    10    11    1
   11    10    12    1
   12    10    13    1
   13    13    14    1
   14    13    15    1
   15    13    16    1
   16    16    17    1
   17    16    18    1
   18    16    19    1
   19    19    20    1
   20    19    21    1
   21    19    22    1
   22     1    23    1
   23    23    24    1
   24    23    25    1
   25    23    26    1
@<TRIPOS>SUBSTRUCTURE
       1 MOL1            1 RESIDUE      1      MOL     
@<SCITEGIC>MOL_PROPERTY
VM2 Rank
SciTegic.value.IntegerValue
206

@<SCITEGIC>MOL_PROPERTY
Conf_Id
SciTegic.value.IntegerValue
1760

@<SCITEGIC>MOL_PROPERTY
Probability
SciTegic.value.DoubleValue
0.00

@<SCITEGIC>MOL_PROPERTY
Sum Probability
SciTegic.value.DoubleValue
100.00

@<SCITEGIC>MOL_PROPERTY
Delta G
SciTegic.value.DoubleValue
5.957

@<SCITEGIC>MOL_PROPERTY
G
SciTegic.value.DoubleValue
81.423

@<SCITEGIC>MOL_PROPERTY
E
SciTegic.value.DoubleValue
48.384

@<SCITEGIC>MOL_PROPERTY
-TS
SciTegic.value.DoubleValue
33.039

@<SCITEGIC>MOL_PROPERTY
U+W
SciTegic.value.DoubleValue
26.922

@<SCITEGIC>MOL_PROPERTY
U
SciTegic.value.DoubleValue
76.568

@<SCITEGIC>MOL_PROPERTY
W
SciTegic.value.DoubleValue
-49.645

@<SCITEGIC>MOL_PROPERTY
W(PB)
SciTegic.value.DoubleValue
-51.858

@<SCITEGIC>MOL_PROPERTY
W(SA)
SciTegic.value.DoubleValue
2.213

@<SCITEGIC>MOL_PROPERTY
Valence
SciTegic.value.DoubleValue
6.604

@<SCITEGIC>MOL_PROPERTY
Coulomb
SciTegic.value.DoubleValue
70.083

@<SCITEGIC>MOL_PROPERTY
VdW
SciTegic.value.DoubleValue
-0.119

@<SCITEGIC>MOL_PROPERTY
VdW6
SciTegic.value.DoubleValue
-8.383

@<SCITEGIC>MOL_PROPERTY
VdW12
SciTegic.value.DoubleValue
8.264

@<SCITEGIC>MOL_PROPERTY
Bond
SciTegic.value.DoubleValue
0.244

@<SCITEGIC>MOL_PROPERTY
Angle
SciTegic.value.DoubleValue
1.737

@<SCITEGIC>MOL_PROPERTY
Pdih
SciTegic.value.DoubleValue
4.623

@<SCITEGIC>MOL_PROPERTY
Idih
SciTegic.value.DoubleValue
0.000

@<SCITEGIC>MOL_PROPERTY
Tether
SciTegic.value.DoubleValue
0.000

@<TRIPOS>MOLECULE
guest-s12_vm2.mol2 : vm2 ligand conformer 207
          26          25           1
SMALL
USER_CHARGES
 
@<TRIPOS>ATOM
       1    N1      19.868924   19.598329   25.634138 N.4        1 MOL1        -0.4857
       2    H1      20.474358   19.086042   26.293448 H          1 MOL1         0.3650
       3    H2      19.200682   20.106741   26.234427 H          1 MOL1         0.3650
       4    C1      19.099292   18.618972   24.757818 C.3        1 MOL1         0.0209
       5    H3      18.556300   19.175843   23.993780 H          1 MOL1         0.0967
       6    H4      18.353823   18.159997   25.412268 H          1 MOL1         0.0967
       7    C2      19.925172   17.475151   24.125546 C.3        1 MOL1        -0.1378
       8    H5      20.623665   17.082564   24.876100 H          1 MOL1         0.0993
       9    H6      19.237213   16.648610   23.903868 H          1 MOL1         0.0993
      10    C3      20.703389   17.813819   22.825496 C.3        1 MOL1        -0.1338
      11    H7      21.257243   16.908269   22.541822 H          1 MOL1         0.0993
      12    H8      21.476043   18.565319   23.013188 H          1 MOL1         0.0993
      13    C4      19.810238   18.209669   21.616968 C.3        1 MOL1        -0.1338
      14    H9      20.292188   17.852984   20.696155 H          1 MOL1         0.0993
      15    H10     18.856217   17.667951   21.674802 H          1 MOL1         0.0993
      16    C5      19.532485   19.726247   21.451969 C.3        1 MOL1        -0.1313
      17    H11     19.074213   20.142211   22.355522 H          1 MOL1         0.0993
      18    H12     18.788504   19.856149   20.653612 H          1 MOL1         0.0993
      19    C6      20.790957   20.544414   21.080714 C.3        1 MOL1        -0.2328
      20    H13     21.538606   20.532060   21.882211 H          1 MOL1         0.1004
      21    H14     20.525294   21.593054   20.894578 H          1 MOL1         0.1004
      22    H15     21.260917   20.152538   20.169403 H          1 MOL1         0.1004
      23    C7      20.677542   20.603399   24.824351 C.3        1 MOL1        -0.0781
      24    H16     20.017499   21.114712   24.120873 H          1 MOL1         0.0978
      25    H17     21.122099   21.331821   25.506113 H          1 MOL1         0.0978
      26    H18     21.469457   20.083886   24.285220 H          1 MOL1         0.0978
@<TRIPOS>BOND
    1     1     2    1
    2     1     3    1
    3     1     4    1
    4     4     5    1
    5     4     6    1
    6     4     7    1
    7     7     8    1
    8     7     9    1
    9     7    10    1
   10    10    11    1
   11    10    12    1
   12    10    13    1
   13    13    14    1
   14    13    15    1
   15    13    16    1
   16    16    17    1
   17    16    18    1
   18    16    19    1
   19    19    20    1
   20    19    21    1
   21    19    22    1
   22     1    23    1
   23    23    24    1
   24    23    25    1
   25    23    26    1
@<TRIPOS>SUBSTRUCTURE
       1 MOL1            1 RESIDUE      1      MOL     
@<SCITEGIC>MOL_PROPERTY
VM2 Rank
SciTegic.value.IntegerValue
207

@<SCITEGIC>MOL_PROPERTY
Conf_Id
SciTegic.value.IntegerValue
277

@<SCITEGIC>MOL_PROPERTY
Probability
SciTegic.value.DoubleValue
0.00

@<SCITEGIC>MOL_PROPERTY
Sum Probability
SciTegic.value.DoubleValue
100.00

@<SCITEGIC>MOL_PROPERTY
Delta G
SciTegic.value.DoubleValue
6.164

@<SCITEGIC>MOL_PROPERTY
G
SciTegic.value.DoubleValue
81.630

@<SCITEGIC>MOL_PROPERTY
E
SciTegic.value.DoubleValue
48.454

@<SCITEGIC>MOL_PROPERTY
-TS
SciTegic.value.DoubleValue
33.176

@<SCITEGIC>MOL_PROPERTY
U+W
SciTegic.value.DoubleValue
26.992

@<SCITEGIC>MOL_PROPERTY
U
SciTegic.value.DoubleValue
77.501

@<SCITEGIC>MOL_PROPERTY
W
SciTegic.value.DoubleValue
-50.509

@<SCITEGIC>MOL_PROPERTY
W(PB)
SciTegic.value.DoubleValue
-52.627

@<SCITEGIC>MOL_PROPERTY
W(SA)
SciTegic.value.DoubleValue
2.118

@<SCITEGIC>MOL_PROPERTY
Valence
SciTegic.value.DoubleValue
7.521

@<SCITEGIC>MOL_PROPERTY
Coulomb
SciTegic.value.DoubleValue
70.206

@<SCITEGIC>MOL_PROPERTY
VdW
SciTegic.value.DoubleValue
-0.225

@<SCITEGIC>MOL_PROPERTY
VdW6
SciTegic.value.DoubleValue
-9.966

@<SCITEGIC>MOL_PROPERTY
VdW12
SciTegic.value.DoubleValue
9.741

@<SCITEGIC>MOL_PROPERTY
Bond
SciTegic.value.DoubleValue
0.343

@<SCITEGIC>MOL_PROPERTY
Angle
SciTegic.value.DoubleValue
2.885

@<SCITEGIC>MOL_PROPERTY
Pdih
SciTegic.value.DoubleValue
4.292

@<SCITEGIC>MOL_PROPERTY
Idih
SciTegic.value.DoubleValue
0.000

@<SCITEGIC>MOL_PROPERTY
Tether
SciTegic.value.DoubleValue
0.000

@<TRIPOS>MOLECULE
guest-s12_vm2.mol2 : vm2 ligand conformer 208
          26          25           1
SMALL
USER_CHARGES
 
@<TRIPOS>ATOM
       1    N1      19.601654   20.084015   24.769954 N.4        1 MOL1        -0.4857
       2    H1      18.808366   20.727457   24.920299 H          1 MOL1         0.3650
       3    H2      20.056647   20.406714   23.903551 H          1 MOL1         0.3650
       4    C1      19.082096   18.668469   24.577069 C.3        1 MOL1         0.0209
       5    H3      18.300571   18.702830   23.815383 H          1 MOL1         0.0967
       6    H4      18.615434   18.356581   25.514830 H          1 MOL1         0.0967
       7    C2      20.146188   17.629017   24.163065 C.3        1 MOL1        -0.1378
       8    H5      20.832972   17.473661   25.005204 H          1 MOL1         0.0993
       9    H6      19.647968   16.663462   24.005307 H          1 MOL1         0.0993
      10    C3      20.977201   17.988395   22.901904 C.3        1 MOL1        -0.1338
      11    H7      21.734464   17.201183   22.782936 H          1 MOL1         0.0993
      12    H8      21.550532   18.908175   23.067107 H          1 MOL1         0.0993
      13    C4      20.170039   18.059682   21.576002 C.3        1 MOL1        -0.1338
      14    H9      20.858613   17.858387   20.743665 H          1 MOL1         0.0993
      15    H10     19.437335   17.241346   21.553422 H          1 MOL1         0.0993
      16    C5      19.450335   19.401748   21.280244 C.3        1 MOL1        -0.1313
      17    H11     18.709882   19.631894   22.053712 H          1 MOL1         0.0993
      18    H12     18.874356   19.282777   20.351783 H          1 MOL1         0.0993
      19    C6      20.415901   20.596288   21.100025 C.3        1 MOL1        -0.2328
      20    H13     21.154562   20.388176   20.315023 H          1 MOL1         0.1004
      21    H14     20.958383   20.833291   22.022088 H          1 MOL1         0.1004
      22    H15     19.861004   21.495974   20.803707 H          1 MOL1         0.1004
      23    C7      20.564586   20.162387   25.948737 C.3        1 MOL1        -0.0781
      24    H16     21.426608   19.521232   25.753600 H          1 MOL1         0.0978
      25    H17     20.895401   21.195954   26.072446 H          1 MOL1         0.0978
      26    H18     20.051538   19.828624   26.853243 H          1 MOL1         0.0978
@<TRIPOS>BOND
    1     1     2    1
    2     1     3    1
    3     1     4    1
    4     4     5    1
    5     4     6    1
    6     4     7    1
    7     7     8    1
    8     7     9    1
    9     7    10    1
   10    10    11    1
   11    10    12    1
   12    10    13    1
   13    13    14    1
   14    13    15    1
   15    13    16    1
   16    16    17    1
   17    16    18    1
   18    16    19    1
   19    19    20    1
   20    19    21    1
   21    19    22    1
   22     1    23    1
   23    23    24    1
   24    23    25    1
   25    23    26    1
@<TRIPOS>SUBSTRUCTURE
       1 MOL1            1 RESIDUE      1      MOL     
@<SCITEGIC>MOL_PROPERTY
VM2 Rank
SciTegic.value.IntegerValue
208

@<SCITEGIC>MOL_PROPERTY
Conf_Id
SciTegic.value.IntegerValue
818

@<SCITEGIC>MOL_PROPERTY
Probability
SciTegic.value.DoubleValue
0.00

@<SCITEGIC>MOL_PROPERTY
Sum Probability
SciTegic.value.DoubleValue
100.00

@<SCITEGIC>MOL_PROPERTY
Delta G
SciTegic.value.DoubleValue
6.260

@<SCITEGIC>MOL_PROPERTY
G
SciTegic.value.DoubleValue
81.726

@<SCITEGIC>MOL_PROPERTY
E
SciTegic.value.DoubleValue
48.323

@<SCITEGIC>MOL_PROPERTY
-TS
SciTegic.value.DoubleValue
33.403

@<SCITEGIC>MOL_PROPERTY
U+W
SciTegic.value.DoubleValue
26.861

@<SCITEGIC>MOL_PROPERTY
U
SciTegic.value.DoubleValue
76.224

@<SCITEGIC>MOL_PROPERTY
W
SciTegic.value.DoubleValue
-49.363

@<SCITEGIC>MOL_PROPERTY
W(PB)
SciTegic.value.DoubleValue
-51.507

@<SCITEGIC>MOL_PROPERTY
W(SA)
SciTegic.value.DoubleValue
2.144

@<SCITEGIC>MOL_PROPERTY
Valence
SciTegic.value.DoubleValue
5.366

@<SCITEGIC>MOL_PROPERTY
Coulomb
SciTegic.value.DoubleValue
70.918

@<SCITEGIC>MOL_PROPERTY
VdW
SciTegic.value.DoubleValue
-0.060

@<SCITEGIC>MOL_PROPERTY
VdW6
SciTegic.value.DoubleValue
-9.939

@<SCITEGIC>MOL_PROPERTY
VdW12
SciTegic.value.DoubleValue
9.879

@<SCITEGIC>MOL_PROPERTY
Bond
SciTegic.value.DoubleValue
0.328

@<SCITEGIC>MOL_PROPERTY
Angle
SciTegic.value.DoubleValue
2.304

@<SCITEGIC>MOL_PROPERTY
Pdih
SciTegic.value.DoubleValue
2.734

@<SCITEGIC>MOL_PROPERTY
Idih
SciTegic.value.DoubleValue
0.000

@<SCITEGIC>MOL_PROPERTY
Tether
SciTegic.value.DoubleValue
0.000

@<TRIPOS>MOLECULE
guest-s12_vm2.mol2 : vm2 ligand conformer 209
          26          25           1
SMALL
USER_CHARGES
 
@<TRIPOS>ATOM
       1    N1      20.149305   20.148841   24.789158 N.4        1 MOL1        -0.4857
       2    H1      19.692410   20.363657   23.890878 H          1 MOL1         0.3650
       3    H2      20.758412   20.958253   24.988582 H          1 MOL1         0.3650
       4    C1      20.996605   18.895074   24.644018 C.3        1 MOL1         0.0209
       5    H3      21.457395   18.692927   25.614199 H          1 MOL1         0.0967
       6    H4      21.799132   19.116935   23.937722 H          1 MOL1         0.0967
       7    C2      20.235309   17.639590   24.166164 C.3        1 MOL1        -0.1378
       8    H5      20.954565   16.818119   24.050995 H          1 MOL1         0.0993
       9    H6      19.547322   17.321534   24.960216 H          1 MOL1         0.0993
      10    C3      19.432340   17.805586   22.847851 C.3        1 MOL1        -0.1338
      11    H7      18.650404   18.564992   22.965643 H          1 MOL1         0.0993
      12    H8      18.889506   16.864524   22.683427 H          1 MOL1         0.0993
      13    C4      20.290022   18.073868   21.580171 C.3        1 MOL1        -0.1338
      14    H9      21.193074   17.449098   21.614797 H          1 MOL1         0.0993
      15    H10     19.726371   17.724387   20.704044 H          1 MOL1         0.0993
      16    C5      20.695648   19.549099   21.323761 C.3        1 MOL1        -0.1313
      17    H11     21.346030   19.575255   20.438174 H          1 MOL1         0.0993
      18    H12     21.306969   19.939201   22.144491 H          1 MOL1         0.0993
      19    C6      19.492983   20.487064   21.067755 C.3        1 MOL1        -0.2328
      20    H13     18.879001   20.118858   20.235524 H          1 MOL1         0.1004
      21    H14     19.841908   21.493685   20.802959 H          1 MOL1         0.1004
      22    H15     18.848073   20.583611   21.948338 H          1 MOL1         0.1004
      23    C7      19.115789   19.990877   25.898122 C.3        1 MOL1        -0.0781
      24    H16     19.628956   19.778554   26.838508 H          1 MOL1         0.0978
      25    H17     18.545372   20.917767   25.990340 H          1 MOL1         0.0978
      26    H18     18.442583   19.168010   25.649277 H          1 MOL1         0.0978
@<TRIPOS>BOND
    1     1     2    1
    2     1     3    1
    3     1     4    1
    4     4     5    1
    5     4     6    1
    6     4     7    1
    7     7     8    1
    8     7     9    1
    9     7    10    1
   10    10    11    1
   11    10    12    1
   12    10    13    1
   13    13    14    1
   14    13    15    1
   15    13    16    1
   16    16    17    1
   17    16    18    1
   18    16    19    1
   19    19    20    1
   20    19    21    1
   21    19    22    1
   22     1    23    1
   23    23    24    1
   24    23    25    1
   25    23    26    1
@<TRIPOS>SUBSTRUCTURE
       1 MOL1            1 RESIDUE      1      MOL     
@<SCITEGIC>MOL_PROPERTY
VM2 Rank
SciTegic.value.IntegerValue
209

@<SCITEGIC>MOL_PROPERTY
Conf_Id
SciTegic.value.IntegerValue
243

@<SCITEGIC>MOL_PROPERTY
Probability
SciTegic.value.DoubleValue
0.00

@<SCITEGIC>MOL_PROPERTY
Sum Probability
SciTegic.value.DoubleValue
100.00

@<SCITEGIC>MOL_PROPERTY
Delta G
SciTegic.value.DoubleValue
6.323

@<SCITEGIC>MOL_PROPERTY
G
SciTegic.value.DoubleValue
81.789

@<SCITEGIC>MOL_PROPERTY
E
SciTegic.value.DoubleValue
48.387

@<SCITEGIC>MOL_PROPERTY
-TS
SciTegic.value.DoubleValue
33.403

@<SCITEGIC>MOL_PROPERTY
U+W
SciTegic.value.DoubleValue
26.925

@<SCITEGIC>MOL_PROPERTY
U
SciTegic.value.DoubleValue
76.224

@<SCITEGIC>MOL_PROPERTY
W
SciTegic.value.DoubleValue
-49.299

@<SCITEGIC>MOL_PROPERTY
W(PB)
SciTegic.value.DoubleValue
-51.459

@<SCITEGIC>MOL_PROPERTY
W(SA)
SciTegic.value.DoubleValue
2.160

@<SCITEGIC>MOL_PROPERTY
Valence
SciTegic.value.DoubleValue
5.366

@<SCITEGIC>MOL_PROPERTY
Coulomb
SciTegic.value.DoubleValue
70.918

@<SCITEGIC>MOL_PROPERTY
VdW
SciTegic.value.DoubleValue
-0.060

@<SCITEGIC>MOL_PROPERTY
VdW6
SciTegic.value.DoubleValue
-9.938

@<SCITEGIC>MOL_PROPERTY
VdW12
SciTegic.value.DoubleValue
9.878

@<SCITEGIC>MOL_PROPERTY
Bond
SciTegic.value.DoubleValue
0.328

@<SCITEGIC>MOL_PROPERTY
Angle
SciTegic.value.DoubleValue
2.304

@<SCITEGIC>MOL_PROPERTY
Pdih
SciTegic.value.DoubleValue
2.734

@<SCITEGIC>MOL_PROPERTY
Idih
SciTegic.value.DoubleValue
0.000

@<SCITEGIC>MOL_PROPERTY
Tether
SciTegic.value.DoubleValue
0.000

@<TRIPOS>MOLECULE
guest-s12_vm2.mol2 : vm2 ligand conformer 210
          26          25           1
SMALL
USER_CHARGES
 
@<TRIPOS>ATOM
       1    N1      20.944729   18.588193   25.498763 N.4        1 MOL1        -0.4857
       2    H1      21.937395   18.789615   25.698384 H          1 MOL1         0.3650
       3    H2      20.922012   17.590947   25.236242 H          1 MOL1         0.3650
       4    C1      20.474266   19.449388   24.338467 C.3        1 MOL1         0.0209
       5    H3      21.217669   19.354135   23.545271 H          1 MOL1         0.0967
       6    H4      20.470987   20.489956   24.672362 H          1 MOL1         0.0967
       7    C2      19.082212   19.074057   23.785002 C.3        1 MOL1        -0.1378
       8    H5      19.041367   18.006079   23.534883 H          1 MOL1         0.0993
       9    H6      18.340246   19.233354   24.577967 H          1 MOL1         0.0993
      10    C3      18.671968   19.924484   22.557250 C.3        1 MOL1        -0.1338
      11    H7      19.007879   20.962138   22.691321 H          1 MOL1         0.0993
      12    H8      17.574430   19.972049   22.531909 H          1 MOL1         0.0993
      13    C4      19.143358   19.387047   21.178536 C.3        1 MOL1        -0.1338
      14    H9      18.714027   18.392240   20.996111 H          1 MOL1         0.0993
      15    H10     18.706425   20.038242   20.408746 H          1 MOL1         0.0993
      16    C5      20.677094   19.355037   20.957835 C.3        1 MOL1        -0.1313
      17    H11     21.166709   20.141946   21.547253 H          1 MOL1         0.0993
      18    H12     20.883785   19.599951   19.906487 H          1 MOL1         0.0993
      19    C6      21.307728   17.973895   21.253676 C.3        1 MOL1        -0.2328
      20    H13     21.121306   17.644579   22.281307 H          1 MOL1         0.1004
      21    H14     22.394637   18.006651   21.103904 H          1 MOL1         0.1004
      22    H15     20.902505   17.208331   20.579315 H          1 MOL1         0.1004
      23    C7      20.106645   18.837898   26.747469 C.3        1 MOL1        -0.0781
      24    H16     20.163623   19.895989   27.012054 H          1 MOL1         0.0978
      25    H17     19.069531   18.560574   26.548688 H          1 MOL1         0.0978
      26    H18     20.497863   18.231343   27.567284 H          1 MOL1         0.0978
@<TRIPOS>BOND
    1     1     2    1
    2     1     3    1
    3     1     4    1
    4     4     5    1
    5     4     6    1
    6     4     7    1
    7     7     8    1
    8     7     9    1
    9     7    10    1
   10    10    11    1
   11    10    12    1
   12    10    13    1
   13    13    14    1
   14    13    15    1
   15    13    16    1
   16    16    17    1
   17    16    18    1
   18    16    19    1
   19    19    20    1
   20    19    21    1
   21    19    22    1
   22     1    23    1
   23    23    24    1
   24    23    25    1
   25    23    26    1
@<TRIPOS>SUBSTRUCTURE
       1 MOL1            1 RESIDUE      1      MOL     
@<SCITEGIC>MOL_PROPERTY
VM2 Rank
SciTegic.value.IntegerValue
210

@<SCITEGIC>MOL_PROPERTY
Conf_Id
SciTegic.value.IntegerValue
464

@<SCITEGIC>MOL_PROPERTY
Probability
SciTegic.value.DoubleValue
0.00

@<SCITEGIC>MOL_PROPERTY
Sum Probability
SciTegic.value.DoubleValue
100.00

@<SCITEGIC>MOL_PROPERTY
Delta G
SciTegic.value.DoubleValue
6.378

@<SCITEGIC>MOL_PROPERTY
G
SciTegic.value.DoubleValue
81.844

@<SCITEGIC>MOL_PROPERTY
E
SciTegic.value.DoubleValue
48.629

@<SCITEGIC>MOL_PROPERTY
-TS
SciTegic.value.DoubleValue
33.215

@<SCITEGIC>MOL_PROPERTY
U+W
SciTegic.value.DoubleValue
27.167

@<SCITEGIC>MOL_PROPERTY
U
SciTegic.value.DoubleValue
77.189

@<SCITEGIC>MOL_PROPERTY
W
SciTegic.value.DoubleValue
-50.021

@<SCITEGIC>MOL_PROPERTY
W(PB)
SciTegic.value.DoubleValue
-52.230

@<SCITEGIC>MOL_PROPERTY
W(SA)
SciTegic.value.DoubleValue
2.209

@<SCITEGIC>MOL_PROPERTY
Valence
SciTegic.value.DoubleValue
6.920

@<SCITEGIC>MOL_PROPERTY
Coulomb
SciTegic.value.DoubleValue
70.049

@<SCITEGIC>MOL_PROPERTY
VdW
SciTegic.value.DoubleValue
0.220

@<SCITEGIC>MOL_PROPERTY
VdW6
SciTegic.value.DoubleValue
-8.979

@<SCITEGIC>MOL_PROPERTY
VdW12
SciTegic.value.DoubleValue
9.199

@<SCITEGIC>MOL_PROPERTY
Bond
SciTegic.value.DoubleValue
0.284

@<SCITEGIC>MOL_PROPERTY
Angle
SciTegic.value.DoubleValue
1.855

@<SCITEGIC>MOL_PROPERTY
Pdih
SciTegic.value.DoubleValue
4.781

@<SCITEGIC>MOL_PROPERTY
Idih
SciTegic.value.DoubleValue
0.000

@<SCITEGIC>MOL_PROPERTY
Tether
SciTegic.value.DoubleValue
0.000

@<TRIPOS>MOLECULE
guest-s12_vm2.mol2 : vm2 ligand conformer 211
          26          25           1
SMALL
USER_CHARGES
 
@<TRIPOS>ATOM
       1    N1      19.864092   19.672115   25.488974 N.4        1 MOL1        -0.4857
       2    H1      20.085908   20.464482   24.868422 H          1 MOL1         0.3650
       3    H2      20.034758   20.021488   26.445304 H          1 MOL1         0.3650
       4    C1      20.798091   18.510222   25.197783 C.3        1 MOL1         0.0209
       5    H3      20.499481   17.682232   25.845633 H          1 MOL1         0.0967
       6    H4      21.803916   18.818739   25.493823 H          1 MOL1         0.0967
       7    C2      20.836938   18.024567   23.730118 C.3        1 MOL1        -0.1378
       8    H5      21.477961   17.133695   23.700509 H          1 MOL1         0.0993
       9    H6      19.842803   17.686424   23.417218 H          1 MOL1         0.0993
      10    C3      21.416120   19.069315   22.738206 C.3        1 MOL1        -0.1338
      11    H7      21.908005   18.545351   21.907126 H          1 MOL1         0.0993
      12    H8      22.217660   19.626607   23.242616 H          1 MOL1         0.0993
      13    C4      20.381069   20.071847   22.157967 C.3        1 MOL1        -0.1338
      14    H9      19.576641   20.269859   22.875020 H          1 MOL1         0.0993
      15    H10     20.887090   21.035053   22.004321 H          1 MOL1         0.0993
      16    C5      19.768159   19.645253   20.799674 C.3        1 MOL1        -0.1313
      17    H11     20.566550   19.534492   20.052615 H          1 MOL1         0.0993
      18    H12     19.123310   20.457710   20.436458 H          1 MOL1         0.0993
      19    C6      18.937873   18.344211   20.860898 C.3        1 MOL1        -0.2328
      20    H13     19.571158   17.476320   21.082554 H          1 MOL1         0.1004
      21    H14     18.448789   18.155682   19.896477 H          1 MOL1         0.1004
      22    H15     18.154314   18.409983   21.626659 H          1 MOL1         0.1004
      23    C7      18.405657   19.252468   25.343379 C.3        1 MOL1        -0.0781
      24    H16     18.199194   18.430135   26.031797 H          1 MOL1         0.0978
      25    H17     17.763284   20.103055   25.581889 H          1 MOL1         0.0978
      26    H18     18.223237   18.930132   24.316281 H          1 MOL1         0.0978
@<TRIPOS>BOND
    1     1     2    1
    2     1     3    1
    3     1     4    1
    4     4     5    1
    5     4     6    1
    6     4     7    1
    7     7     8    1
    8     7     9    1
    9     7    10    1
   10    10    11    1
   11    10    12    1
   12    10    13    1
   13    13    14    1
   14    13    15    1
   15    13    16    1
   16    16    17    1
   17    16    18    1
   18    16    19    1
   19    19    20    1
   20    19    21    1
   21    19    22    1
   22     1    23    1
   23    23    24    1
   24    23    25    1
   25    23    26    1
@<TRIPOS>SUBSTRUCTURE
       1 MOL1            1 RESIDUE      1      MOL     
@<SCITEGIC>MOL_PROPERTY
VM2 Rank
SciTegic.value.IntegerValue
211

@<SCITEGIC>MOL_PROPERTY
Conf_Id
SciTegic.value.IntegerValue
239

@<SCITEGIC>MOL_PROPERTY
Probability
SciTegic.value.DoubleValue
0.00

@<SCITEGIC>MOL_PROPERTY
Sum Probability
SciTegic.value.DoubleValue
100.00

@<SCITEGIC>MOL_PROPERTY
Delta G
SciTegic.value.DoubleValue
6.412

@<SCITEGIC>MOL_PROPERTY
G
SciTegic.value.DoubleValue
81.878

@<SCITEGIC>MOL_PROPERTY
E
SciTegic.value.DoubleValue
48.644

@<SCITEGIC>MOL_PROPERTY
-TS
SciTegic.value.DoubleValue
33.235

@<SCITEGIC>MOL_PROPERTY
U+W
SciTegic.value.DoubleValue
27.182

@<SCITEGIC>MOL_PROPERTY
U
SciTegic.value.DoubleValue
77.340

@<SCITEGIC>MOL_PROPERTY
W
SciTegic.value.DoubleValue
-50.158

@<SCITEGIC>MOL_PROPERTY
W(PB)
SciTegic.value.DoubleValue
-52.285

@<SCITEGIC>MOL_PROPERTY
W(SA)
SciTegic.value.DoubleValue
2.128

@<SCITEGIC>MOL_PROPERTY
Valence
SciTegic.value.DoubleValue
6.847

@<SCITEGIC>MOL_PROPERTY
Coulomb
SciTegic.value.DoubleValue
70.349

@<SCITEGIC>MOL_PROPERTY
VdW
SciTegic.value.DoubleValue
0.144

@<SCITEGIC>MOL_PROPERTY
VdW6
SciTegic.value.DoubleValue
-9.591

@<SCITEGIC>MOL_PROPERTY
VdW12
SciTegic.value.DoubleValue
9.736

@<SCITEGIC>MOL_PROPERTY
Bond
SciTegic.value.DoubleValue
0.315

@<SCITEGIC>MOL_PROPERTY
Angle
SciTegic.value.DoubleValue
1.724

@<SCITEGIC>MOL_PROPERTY
Pdih
SciTegic.value.DoubleValue
4.808

@<SCITEGIC>MOL_PROPERTY
Idih
SciTegic.value.DoubleValue
0.000

@<SCITEGIC>MOL_PROPERTY
Tether
SciTegic.value.DoubleValue
0.000

@<TRIPOS>MOLECULE
guest-s12_vm2.mol2 : vm2 ligand conformer 212
          26          25           1
SMALL
USER_CHARGES
 
@<TRIPOS>ATOM
       1    N1      19.957271   19.681613   25.492478 N.4        1 MOL1        -0.4857
       2    H1      19.652198   19.981761   26.431944 H          1 MOL1         0.3650
       3    H2      19.622397   20.416497   24.852213 H          1 MOL1         0.3650
       4    C1      19.303023   18.355625   25.144832 C.3        1 MOL1         0.0209
       5    H3      18.237184   18.450013   25.367507 H          1 MOL1         0.0967
       6    H4      19.718356   17.601305   25.817843 H          1 MOL1         0.0967
       7    C2      19.467007   17.883171   23.681514 C.3        1 MOL1        -0.1378
       8    H5      20.528656   17.757397   23.441422 H          1 MOL1         0.0993
       9    H6      19.024999   16.880465   23.613319 H          1 MOL1         0.0993
      10    C3      18.757697   18.795101   22.644167 C.3        1 MOL1        -0.1338
      11    H7      17.826158   19.173612   23.087377 H          1 MOL1         0.0993
      12    H8      18.442212   18.187949   21.784504 H          1 MOL1         0.0993
      13    C4      19.604616   19.991764   22.130560 C.3        1 MOL1        -0.1338
      14    H9      18.924916   20.832767   21.935241 H          1 MOL1         0.0993
      15    H10     20.299813   20.344218   22.900602 H          1 MOL1         0.0993
      16    C5      20.384793   19.709019   20.821369 C.3        1 MOL1        -0.1313
      17    H11     20.874329   20.638460   20.498359 H          1 MOL1         0.0993
      18    H12     19.679796   19.443453   20.021213 H          1 MOL1         0.0993
      19    C6      21.456379   18.603973   20.949489 C.3        1 MOL1        -0.2328
      20    H13     22.039593   18.526080   20.022856 H          1 MOL1         0.1004
      21    H14     20.999305   17.623679   21.132589 H          1 MOL1         0.1004
      22    H15     22.154813   18.822377   21.767517 H          1 MOL1         0.1004
      23    C7      21.477213   19.569734   25.452592 C.3        1 MOL1        -0.0781
      24    H16     21.798456   18.801925   26.159736 H          1 MOL1         0.0978
      25    H17     21.793217   19.298912   24.443184 H          1 MOL1         0.0978
      26    H18     21.913981   20.531830   25.729421 H          1 MOL1         0.0978
@<TRIPOS>BOND
    1     1     2    1
    2     1     3    1
    3     1     4    1
    4     4     5    1
    5     4     6    1
    6     4     7    1
    7     7     8    1
    8     7     9    1
    9     7    10    1
   10    10    11    1
   11    10    12    1
   12    10    13    1
   13    13    14    1
   14    13    15    1
   15    13    16    1
   16    16    17    1
   17    16    18    1
   18    16    19    1
   19    19    20    1
   20    19    21    1
   21    19    22    1
   22     1    23    1
   23    23    24    1
   24    23    25    1
   25    23    26    1
@<TRIPOS>SUBSTRUCTURE
       1 MOL1            1 RESIDUE      1      MOL     
@<SCITEGIC>MOL_PROPERTY
VM2 Rank
SciTegic.value.IntegerValue
212

@<SCITEGIC>MOL_PROPERTY
Conf_Id
SciTegic.value.IntegerValue
1570

@<SCITEGIC>MOL_PROPERTY
Probability
SciTegic.value.DoubleValue
0.00

@<SCITEGIC>MOL_PROPERTY
Sum Probability
SciTegic.value.DoubleValue
100.00

@<SCITEGIC>MOL_PROPERTY
Delta G
SciTegic.value.DoubleValue
6.460

@<SCITEGIC>MOL_PROPERTY
G
SciTegic.value.DoubleValue
81.926

@<SCITEGIC>MOL_PROPERTY
E
SciTegic.value.DoubleValue
48.692

@<SCITEGIC>MOL_PROPERTY
-TS
SciTegic.value.DoubleValue
33.234

@<SCITEGIC>MOL_PROPERTY
U+W
SciTegic.value.DoubleValue
27.230

@<SCITEGIC>MOL_PROPERTY
U
SciTegic.value.DoubleValue
77.340

@<SCITEGIC>MOL_PROPERTY
W
SciTegic.value.DoubleValue
-50.110

@<SCITEGIC>MOL_PROPERTY
W(PB)
SciTegic.value.DoubleValue
-52.264

@<SCITEGIC>MOL_PROPERTY
W(SA)
SciTegic.value.DoubleValue
2.154

@<SCITEGIC>MOL_PROPERTY
Valence
SciTegic.value.DoubleValue
6.848

@<SCITEGIC>MOL_PROPERTY
Coulomb
SciTegic.value.DoubleValue
70.348

@<SCITEGIC>MOL_PROPERTY
VdW
SciTegic.value.DoubleValue
0.144

@<SCITEGIC>MOL_PROPERTY
VdW6
SciTegic.value.DoubleValue
-9.591

@<SCITEGIC>MOL_PROPERTY
VdW12
SciTegic.value.DoubleValue
9.735

@<SCITEGIC>MOL_PROPERTY
Bond
SciTegic.value.DoubleValue
0.315

@<SCITEGIC>MOL_PROPERTY
Angle
SciTegic.value.DoubleValue
1.723

@<SCITEGIC>MOL_PROPERTY
Pdih
SciTegic.value.DoubleValue
4.810

@<SCITEGIC>MOL_PROPERTY
Idih
SciTegic.value.DoubleValue
0.000

@<SCITEGIC>MOL_PROPERTY
Tether
SciTegic.value.DoubleValue
0.000

@<TRIPOS>MOLECULE
guest-s12_vm2.mol2 : vm2 ligand conformer 213
          26          25           1
SMALL
USER_CHARGES
 
@<TRIPOS>ATOM
       1    N1      19.759796   19.360383   25.470914 N.4        1 MOL1        -0.4857
       2    H1      19.440963   18.634524   26.131282 H          1 MOL1         0.3650
       3    H2      18.903833   19.725538   25.027615 H          1 MOL1         0.3650
       4    C1      20.670261   18.749362   24.423614 C.3        1 MOL1         0.0209
       5    H3      21.551540   18.363021   24.941911 H          1 MOL1         0.0967
       6    H4      20.994249   19.549232   23.756149 H          1 MOL1         0.0967
       7    C2      20.017377   17.610085   23.612140 C.3        1 MOL1        -0.1378
       8    H5      20.775242   17.126466   22.982100 H          1 MOL1         0.0993
       9    H6      19.679453   16.839742   24.317984 H          1 MOL1         0.0993
      10    C3      18.815187   18.050716   22.735459 C.3        1 MOL1        -0.1338
      11    H7      18.177378   18.757419   23.281702 H          1 MOL1         0.0993
      12    H8      18.186136   17.166275   22.563624 H          1 MOL1         0.0993
      13    C4      19.176311   18.634691   21.342714 C.3        1 MOL1        -0.1338
      14    H9      19.705284   17.879648   20.744902 H          1 MOL1         0.0993
      15    H10     18.232307   18.817443   20.810734 H          1 MOL1         0.0993
      16    C5      19.977713   19.961020   21.358369 C.3        1 MOL1        -0.1313
      17    H11     19.775330   20.522664   22.280214 H          1 MOL1         0.0993
      18    H12     19.617842   20.598033   20.538173 H          1 MOL1         0.0993
      19    C6      21.498074   19.752709   21.164290 C.3        1 MOL1        -0.2328
      20    H13     21.924640   19.087253   21.922840 H          1 MOL1         0.1004
      21    H14     22.029221   20.711673   21.220371 H          1 MOL1         0.1004
      22    H15     21.707997   19.313551   20.180338 H          1 MOL1         0.1004
      23    C7      20.493280   20.471034   26.209499 C.3        1 MOL1        -0.0781
      24    H16     20.792312   21.241023   25.494925 H          1 MOL1         0.0978
      25    H17     19.827348   20.902703   26.960028 H          1 MOL1         0.0978
      26    H18     21.377652   20.054810   26.696895 H          1 MOL1         0.0978
@<TRIPOS>BOND
    1     1     2    1
    2     1     3    1
    3     1     4    1
    4     4     5    1
    5     4     6    1
    6     4     7    1
    7     7     8    1
    8     7     9    1
    9     7    10    1
   10    10    11    1
   11    10    12    1
   12    10    13    1
   13    13    14    1
   14    13    15    1
   15    13    16    1
   16    16    17    1
   17    16    18    1
   18    16    19    1
   19    19    20    1
   20    19    21    1
   21    19    22    1
   22     1    23    1
   23    23    24    1
   24    23    25    1
   25    23    26    1
@<TRIPOS>SUBSTRUCTURE
       1 MOL1            1 RESIDUE      1      MOL     
@<SCITEGIC>MOL_PROPERTY
VM2 Rank
SciTegic.value.IntegerValue
213

@<SCITEGIC>MOL_PROPERTY
Conf_Id
SciTegic.value.IntegerValue
436

@<SCITEGIC>MOL_PROPERTY
Probability
SciTegic.value.DoubleValue
0.00

@<SCITEGIC>MOL_PROPERTY
Sum Probability
SciTegic.value.DoubleValue
100.00

@<SCITEGIC>MOL_PROPERTY
Delta G
SciTegic.value.DoubleValue
6.483

@<SCITEGIC>MOL_PROPERTY
G
SciTegic.value.DoubleValue
81.949

@<SCITEGIC>MOL_PROPERTY
E
SciTegic.value.DoubleValue
48.856

@<SCITEGIC>MOL_PROPERTY
-TS
SciTegic.value.DoubleValue
33.093

@<SCITEGIC>MOL_PROPERTY
U+W
SciTegic.value.DoubleValue
27.394

@<SCITEGIC>MOL_PROPERTY
U
SciTegic.value.DoubleValue
77.061

@<SCITEGIC>MOL_PROPERTY
W
SciTegic.value.DoubleValue
-49.667

@<SCITEGIC>MOL_PROPERTY
W(PB)
SciTegic.value.DoubleValue
-51.856

@<SCITEGIC>MOL_PROPERTY
W(SA)
SciTegic.value.DoubleValue
2.188

@<SCITEGIC>MOL_PROPERTY
Valence
SciTegic.value.DoubleValue
6.801

@<SCITEGIC>MOL_PROPERTY
Coulomb
SciTegic.value.DoubleValue
70.341

@<SCITEGIC>MOL_PROPERTY
VdW
SciTegic.value.DoubleValue
-0.081

@<SCITEGIC>MOL_PROPERTY
VdW6
SciTegic.value.DoubleValue
-8.958

@<SCITEGIC>MOL_PROPERTY
VdW12
SciTegic.value.DoubleValue
8.877

@<SCITEGIC>MOL_PROPERTY
Bond
SciTegic.value.DoubleValue
0.269

@<SCITEGIC>MOL_PROPERTY
Angle
SciTegic.value.DoubleValue
1.891

@<SCITEGIC>MOL_PROPERTY
Pdih
SciTegic.value.DoubleValue
4.641

@<SCITEGIC>MOL_PROPERTY
Idih
SciTegic.value.DoubleValue
0.000

@<SCITEGIC>MOL_PROPERTY
Tether
SciTegic.value.DoubleValue
0.000

@<TRIPOS>MOLECULE
guest-s12_vm2.mol2 : vm2 ligand conformer 214
          26          25           1
SMALL
USER_CHARGES
 
@<TRIPOS>ATOM
       1    N1      20.626963   18.994969   25.291690 N.4        1 MOL1        -0.4857
       2    H1      20.966413   19.833145   24.796401 H          1 MOL1         0.3650
       3    H2      21.194599   18.209771   24.937487 H          1 MOL1         0.3650
       4    C1      19.164036   18.766706   24.969936 C.3        1 MOL1         0.0209
       5    H3      18.599965   19.617368   25.360531 H          1 MOL1         0.0967
       6    H4      18.845565   17.872365   25.511509 H          1 MOL1         0.0967
       7    C2      18.852611   18.589147   23.468357 C.3        1 MOL1        -0.1378
       8    H5      19.389681   17.716929   23.077150 H          1 MOL1         0.0993
       9    H6      17.784359   18.350547   23.381269 H          1 MOL1         0.0993
      10    C3      19.141213   19.854623   22.616678 C.3        1 MOL1        -0.1338
      11    H7      18.923005   20.745689   23.221707 H          1 MOL1         0.0993
      12    H8      18.433348   19.895911   21.777332 H          1 MOL1         0.0993
      13    C4      20.588623   19.950951   22.060823 C.3        1 MOL1        -0.1338
      14    H9      20.880201   21.010309   22.044166 H          1 MOL1         0.0993
      15    H10     21.302694   19.454946   22.728587 H          1 MOL1         0.0993
      16    C5      20.757075   19.396711   20.623129 C.3        1 MOL1        -0.1313
      17    H11     21.787158   19.588966   20.291720 H          1 MOL1         0.0993
      18    H12     20.107413   19.954302   19.934024 H          1 MOL1         0.0993
      19    C6      20.467915   17.884957   20.491669 C.3        1 MOL1        -0.2328
      20    H13     19.411906   17.661274   20.687516 H          1 MOL1         0.1004
      21    H14     21.083129   17.302029   21.189090 H          1 MOL1         0.1004
      22    H15     20.694253   17.538060   19.475154 H          1 MOL1         0.1004
      23    C7      20.809564   19.151936   26.794720 C.3        1 MOL1        -0.0781
      24    H16     21.867078   19.318039   27.011914 H          1 MOL1         0.0978
      25    H17     20.223275   20.006145   27.140434 H          1 MOL1         0.0978
      26    H18     20.468769   18.242602   27.294604 H          1 MOL1         0.0978
@<TRIPOS>BOND
    1     1     2    1
    2     1     3    1
    3     1     4    1
    4     4     5    1
    5     4     6    1
    6     4     7    1
    7     7     8    1
    8     7     9    1
    9     7    10    1
   10    10    11    1
   11    10    12    1
   12    10    13    1
   13    13    14    1
   14    13    15    1
   15    13    16    1
   16    16    17    1
   17    16    18    1
   18    16    19    1
   19    19    20    1
   20    19    21    1
   21    19    22    1
   22     1    23    1
   23    23    24    1
   24    23    25    1
   25    23    26    1
@<TRIPOS>SUBSTRUCTURE
       1 MOL1            1 RESIDUE      1      MOL     
@<SCITEGIC>MOL_PROPERTY
VM2 Rank
SciTegic.value.IntegerValue
214

@<SCITEGIC>MOL_PROPERTY
Conf_Id
SciTegic.value.IntegerValue
1004

@<SCITEGIC>MOL_PROPERTY
Probability
SciTegic.value.DoubleValue
0.00

@<SCITEGIC>MOL_PROPERTY
Sum Probability
SciTegic.value.DoubleValue
100.00

@<SCITEGIC>MOL_PROPERTY
Delta G
SciTegic.value.DoubleValue
6.507

@<SCITEGIC>MOL_PROPERTY
G
SciTegic.value.DoubleValue
81.973

@<SCITEGIC>MOL_PROPERTY
E
SciTegic.value.DoubleValue
49.206

@<SCITEGIC>MOL_PROPERTY
-TS
SciTegic.value.DoubleValue
32.767

@<SCITEGIC>MOL_PROPERTY
U+W
SciTegic.value.DoubleValue
27.744

@<SCITEGIC>MOL_PROPERTY
U
SciTegic.value.DoubleValue
77.266

@<SCITEGIC>MOL_PROPERTY
W
SciTegic.value.DoubleValue
-49.522

@<SCITEGIC>MOL_PROPERTY
W(PB)
SciTegic.value.DoubleValue
-51.736

@<SCITEGIC>MOL_PROPERTY
W(SA)
SciTegic.value.DoubleValue
2.214

@<SCITEGIC>MOL_PROPERTY
Valence
SciTegic.value.DoubleValue
6.548

@<SCITEGIC>MOL_PROPERTY
Coulomb
SciTegic.value.DoubleValue
70.467

@<SCITEGIC>MOL_PROPERTY
VdW
SciTegic.value.DoubleValue
0.250

@<SCITEGIC>MOL_PROPERTY
VdW6
SciTegic.value.DoubleValue
-8.286

@<SCITEGIC>MOL_PROPERTY
VdW12
SciTegic.value.DoubleValue
8.536

@<SCITEGIC>MOL_PROPERTY
Bond
SciTegic.value.DoubleValue
0.272

@<SCITEGIC>MOL_PROPERTY
Angle
SciTegic.value.DoubleValue
1.407

@<SCITEGIC>MOL_PROPERTY
Pdih
SciTegic.value.DoubleValue
4.870

@<SCITEGIC>MOL_PROPERTY
Idih
SciTegic.value.DoubleValue
0.000

@<SCITEGIC>MOL_PROPERTY
Tether
SciTegic.value.DoubleValue
0.000

@<TRIPOS>MOLECULE
guest-s12_vm2.mol2 : vm2 ligand conformer 215
          26          25           1
SMALL
USER_CHARGES
 
@<TRIPOS>ATOM
       1    N1      19.363650   18.866965   25.247017 N.4        1 MOL1        -0.4857
       2    H1      18.991062   17.986493   24.859522 H          1 MOL1         0.3650
       3    H2      18.898706   19.623628   24.723219 H          1 MOL1         0.3650
       4    C1      20.861517   18.938701   25.030145 C.3        1 MOL1         0.0209
       5    H3      21.313974   18.122448   25.598989 H          1 MOL1         0.0967
       6    H4      21.214966   19.882309   25.453283 H          1 MOL1         0.0967
       7    C2      21.306578   18.837864   23.555356 C.3        1 MOL1        -0.1378
       8    H5      22.404397   18.818866   23.544978 H          1 MOL1         0.0993
       9    H6      20.983986   17.878500   23.133681 H          1 MOL1         0.0993
      10    C3      20.830511   20.025834   22.676624 C.3        1 MOL1        -0.1338
      11    H7      21.572794   20.214240   21.888716 H          1 MOL1         0.0993
      12    H8      20.822621   20.938203   23.289153 H          1 MOL1         0.0993
      13    C4      19.435802   19.833910   22.019967 C.3        1 MOL1        -0.1338
      14    H9      18.790729   19.199899   22.639439 H          1 MOL1         0.0993
      15    H10     18.939537   20.813340   21.975526 H          1 MOL1         0.0993
      16    C5      19.483198   19.267613   20.577890 C.3        1 MOL1        -0.1313
      17    H11     20.054490   19.949186   19.932197 H          1 MOL1         0.0993
      18    H12     18.461319   19.251727   20.173692 H          1 MOL1         0.0993
      19    C6      20.078255   17.845593   20.477588 C.3        1 MOL1        -0.2328
      20    H13     19.545069   17.146033   21.134107 H          1 MOL1         0.1004
      21    H14     21.141256   17.836867   20.748694 H          1 MOL1         0.1004
      22    H15     19.998060   17.467768   19.450123 H          1 MOL1         0.1004
      23    C7      19.048488   18.973520   26.732413 C.3        1 MOL1        -0.0781
      24    H16     19.426121   19.925372   27.112271 H          1 MOL1         0.0978
      25    H17     17.966571   18.922905   26.873817 H          1 MOL1         0.0978
      26    H18     19.528640   18.147348   27.261385 H          1 MOL1         0.0978
@<TRIPOS>BOND
    1     1     2    1
    2     1     3    1
    3     1     4    1
    4     4     5    1
    5     4     6    1
    6     4     7    1
    7     7     8    1
    8     7     9    1
    9     7    10    1
   10    10    11    1
   11    10    12    1
   12    10    13    1
   13    13    14    1
   14    13    15    1
   15    13    16    1
   16    16    17    1
   17    16    18    1
   18    16    19    1
   19    19    20    1
   20    19    21    1
   21    19    22    1
   22     1    23    1
   23    23    24    1
   24    23    25    1
   25    23    26    1
@<TRIPOS>SUBSTRUCTURE
       1 MOL1            1 RESIDUE      1      MOL     
@<SCITEGIC>MOL_PROPERTY
VM2 Rank
SciTegic.value.IntegerValue
215

@<SCITEGIC>MOL_PROPERTY
Conf_Id
SciTegic.value.IntegerValue
1099

@<SCITEGIC>MOL_PROPERTY
Probability
SciTegic.value.DoubleValue
0.00

@<SCITEGIC>MOL_PROPERTY
Sum Probability
SciTegic.value.DoubleValue
100.00

@<SCITEGIC>MOL_PROPERTY
Delta G
SciTegic.value.DoubleValue
6.530

@<SCITEGIC>MOL_PROPERTY
G
SciTegic.value.DoubleValue
81.996

@<SCITEGIC>MOL_PROPERTY
E
SciTegic.value.DoubleValue
49.229

@<SCITEGIC>MOL_PROPERTY
-TS
SciTegic.value.DoubleValue
32.767

@<SCITEGIC>MOL_PROPERTY
U+W
SciTegic.value.DoubleValue
27.767

@<SCITEGIC>MOL_PROPERTY
U
SciTegic.value.DoubleValue
77.265

@<SCITEGIC>MOL_PROPERTY
W
SciTegic.value.DoubleValue
-49.498

@<SCITEGIC>MOL_PROPERTY
W(PB)
SciTegic.value.DoubleValue
-51.733

@<SCITEGIC>MOL_PROPERTY
W(SA)
SciTegic.value.DoubleValue
2.235

@<SCITEGIC>MOL_PROPERTY
Valence
SciTegic.value.DoubleValue
6.549

@<SCITEGIC>MOL_PROPERTY
Coulomb
SciTegic.value.DoubleValue
70.466

@<SCITEGIC>MOL_PROPERTY
VdW
SciTegic.value.DoubleValue
0.250

@<SCITEGIC>MOL_PROPERTY
VdW6
SciTegic.value.DoubleValue
-8.286

@<SCITEGIC>MOL_PROPERTY
VdW12
SciTegic.value.DoubleValue
8.536

@<SCITEGIC>MOL_PROPERTY
Bond
SciTegic.value.DoubleValue
0.272

@<SCITEGIC>MOL_PROPERTY
Angle
SciTegic.value.DoubleValue
1.406

@<SCITEGIC>MOL_PROPERTY
Pdih
SciTegic.value.DoubleValue
4.871

@<SCITEGIC>MOL_PROPERTY
Idih
SciTegic.value.DoubleValue
0.000

@<SCITEGIC>MOL_PROPERTY
Tether
SciTegic.value.DoubleValue
0.000

@<TRIPOS>MOLECULE
guest-s12_vm2.mol2 : vm2 ligand conformer 216
          26          25           1
SMALL
USER_CHARGES
 
@<TRIPOS>ATOM
       1    N1      20.748063   18.877856   24.849773 N.4        1 MOL1        -0.4857
       2    H1      21.079649   18.796056   23.876792 H          1 MOL1         0.3650
       3    H2      20.841934   17.935105   25.258920 H          1 MOL1         0.3650
       4    C1      19.293670   19.307799   24.859222 C.3        1 MOL1         0.0209
       5    H3      19.229155   20.326200   24.468304 H          1 MOL1         0.0967
       6    H4      18.973734   19.323933   25.904188 H          1 MOL1         0.0967
       7    C2      18.357127   18.379864   24.058250 C.3        1 MOL1        -0.1378
       8    H5      18.603441   17.330992   24.270501 H          1 MOL1         0.0993
       9    H6      17.336787   18.528768   24.435815 H          1 MOL1         0.0993
      10    C3      18.336041   18.624859   22.525213 C.3        1 MOL1        -0.1338
      11    H7      17.956736   19.633903   22.311882 H          1 MOL1         0.0993
      12    H8      17.596625   17.936452   22.092834 H          1 MOL1         0.0993
      13    C4      19.686306   18.397727   21.797897 C.3        1 MOL1        -0.1338
      14    H9      20.279459   17.640041   22.326781 H          1 MOL1         0.0993
      15    H10     19.480574   17.970641   20.806370 H          1 MOL1         0.0993
      16    C5      20.496505   19.701573   21.593257 C.3        1 MOL1        -0.1313
      17    H11     20.597212   20.258349   22.532491 H          1 MOL1         0.0993
      18    H12     19.948834   20.363681   20.907788 H          1 MOL1         0.0993
      19    C6      21.897952   19.417971   21.012318 C.3        1 MOL1        -0.2328
      20    H13     22.449731   20.354299   20.857377 H          1 MOL1         0.1004
      21    H14     21.826647   18.906325   20.043558 H          1 MOL1         0.1004
      22    H15     22.489712   18.787124   21.688054 H          1 MOL1         0.1004
      23    C7      21.592336   19.882350   25.621070 C.3        1 MOL1        -0.0781
      24    H16     22.636322   19.561590   25.603566 H          1 MOL1         0.0978
      25    H17     21.500057   20.864525   25.152359 H          1 MOL1         0.0978
      26    H18     21.238667   19.930368   26.653313 H          1 MOL1         0.0978
@<TRIPOS>BOND
    1     1     2    1
    2     1     3    1
    3     1     4    1
    4     4     5    1
    5     4     6    1
    6     4     7    1
    7     7     8    1
    8     7     9    1
    9     7    10    1
   10    10    11    1
   11    10    12    1
   12    10    13    1
   13    13    14    1
   14    13    15    1
   15    13    16    1
   16    16    17    1
   17    16    18    1
   18    16    19    1
   19    19    20    1
   20    19    21    1
   21    19    22    1
   22     1    23    1
   23    23    24    1
   24    23    25    1
   25    23    26    1
@<TRIPOS>SUBSTRUCTURE
       1 MOL1            1 RESIDUE      1      MOL     
@<SCITEGIC>MOL_PROPERTY
VM2 Rank
SciTegic.value.IntegerValue
216

@<SCITEGIC>MOL_PROPERTY
Conf_Id
SciTegic.value.IntegerValue
1213

@<SCITEGIC>MOL_PROPERTY
Probability
SciTegic.value.DoubleValue
0.00

@<SCITEGIC>MOL_PROPERTY
Sum Probability
SciTegic.value.DoubleValue
100.00

@<SCITEGIC>MOL_PROPERTY
Delta G
SciTegic.value.DoubleValue
7.041

@<SCITEGIC>MOL_PROPERTY
G
SciTegic.value.DoubleValue
82.507

@<SCITEGIC>MOL_PROPERTY
E
SciTegic.value.DoubleValue
49.521

@<SCITEGIC>MOL_PROPERTY
-TS
SciTegic.value.DoubleValue
32.986

@<SCITEGIC>MOL_PROPERTY
U+W
SciTegic.value.DoubleValue
28.059

@<SCITEGIC>MOL_PROPERTY
U
SciTegic.value.DoubleValue
76.549

@<SCITEGIC>MOL_PROPERTY
W
SciTegic.value.DoubleValue
-48.490

@<SCITEGIC>MOL_PROPERTY
W(PB)
SciTegic.value.DoubleValue
-50.670

@<SCITEGIC>MOL_PROPERTY
W(SA)
SciTegic.value.DoubleValue
2.180

@<SCITEGIC>MOL_PROPERTY
Valence
SciTegic.value.DoubleValue
5.808

@<SCITEGIC>MOL_PROPERTY
Coulomb
SciTegic.value.DoubleValue
71.051

@<SCITEGIC>MOL_PROPERTY
VdW
SciTegic.value.DoubleValue
-0.311

@<SCITEGIC>MOL_PROPERTY
VdW6
SciTegic.value.DoubleValue
-8.913

@<SCITEGIC>MOL_PROPERTY
VdW12
SciTegic.value.DoubleValue
8.601

@<SCITEGIC>MOL_PROPERTY
Bond
SciTegic.value.DoubleValue
0.232

@<SCITEGIC>MOL_PROPERTY
Angle
SciTegic.value.DoubleValue
1.493

@<SCITEGIC>MOL_PROPERTY
Pdih
SciTegic.value.DoubleValue
4.084

@<SCITEGIC>MOL_PROPERTY
Idih
SciTegic.value.DoubleValue
0.000

@<SCITEGIC>MOL_PROPERTY
Tether
SciTegic.value.DoubleValue
0.000

@<TRIPOS>MOLECULE
guest-s12_vm2.mol2 : vm2 ligand conformer 217
          26          25           1
SMALL
USER_CHARGES
 
@<TRIPOS>ATOM
       1    N1      19.300670   18.729398   24.798403 N.4        1 MOL1        -0.4857
       2    H1      19.371489   17.784263   25.206685 H          1 MOL1         0.3650
       3    H2      19.061535   18.589100   23.805193 H          1 MOL1         0.3650
       4    C1      20.633366   19.445228   24.906630 C.3        1 MOL1         0.0209
       5    H3      20.869390   19.518354   25.971297 H          1 MOL1         0.0967
       6    H4      20.517262   20.458351   24.513921 H          1 MOL1         0.0967
       7    C2      21.792364   18.732267   24.179890 C.3        1 MOL1        -0.1378
       8    H5      22.732316   19.082287   24.626876 H          1 MOL1         0.0993
       9    H6      21.749623   17.653748   24.381933 H          1 MOL1         0.0993
      10    C3      21.870610   18.987389   22.650358 C.3        1 MOL1        -0.1338
      11    H7      22.762635   18.466265   22.275772 H          1 MOL1         0.0993
      12    H8      22.051478   20.053868   22.456811 H          1 MOL1         0.0993
      13    C4      20.648713   18.496442   21.831992 C.3        1 MOL1        -0.1338
      14    H9      21.005621   18.127026   20.860394 H          1 MOL1         0.0993
      15    H10     20.185964   17.630476   22.323523 H          1 MOL1         0.0993
      16    C5      19.607353   19.610385   21.561783 C.3        1 MOL1        -0.1313
      17    H11     20.055963   20.374581   20.911435 H          1 MOL1         0.0993
      18    H12     19.330503   20.128556   22.487611 H          1 MOL1         0.0993
      19    C6      18.336576   19.052665   20.886469 C.3        1 MOL1        -0.2328
      20    H13     17.839267   18.310192   21.523797 H          1 MOL1         0.1004
      21    H14     18.577620   18.572952   19.928798 H          1 MOL1         0.1004
      22    H15     17.618634   19.858753   20.686578 H          1 MOL1         0.1004
      23    C7      18.218348   19.536227   25.501475 C.3        1 MOL1        -0.0781
      24    H16     17.264941   19.010563   25.413195 H          1 MOL1         0.0978
      25    H17     18.481762   19.647516   26.555582 H          1 MOL1         0.0978
      26    H18     18.142129   20.520062   25.033362 H          1 MOL1         0.0978
@<TRIPOS>BOND
    1     1     2    1
    2     1     3    1
    3     1     4    1
    4     4     5    1
    5     4     6    1
    6     4     7    1
    7     7     8    1
    8     7     9    1
    9     7    10    1
   10    10    11    1
   11    10    12    1
   12    10    13    1
   13    13    14    1
   14    13    15    1
   15    13    16    1
   16    16    17    1
   17    16    18    1
   18    16    19    1
   19    19    20    1
   20    19    21    1
   21    19    22    1
   22     1    23    1
   23    23    24    1
   24    23    25    1
   25    23    26    1
@<TRIPOS>SUBSTRUCTURE
       1 MOL1            1 RESIDUE      1      MOL     
@<SCITEGIC>MOL_PROPERTY
VM2 Rank
SciTegic.value.IntegerValue
217

@<SCITEGIC>MOL_PROPERTY
Conf_Id
SciTegic.value.IntegerValue
1723

@<SCITEGIC>MOL_PROPERTY
Probability
SciTegic.value.DoubleValue
0.00

@<SCITEGIC>MOL_PROPERTY
Sum Probability
SciTegic.value.DoubleValue
100.00

@<SCITEGIC>MOL_PROPERTY
Delta G
SciTegic.value.DoubleValue
7.049

@<SCITEGIC>MOL_PROPERTY
G
SciTegic.value.DoubleValue
82.515

@<SCITEGIC>MOL_PROPERTY
E
SciTegic.value.DoubleValue
49.529

@<SCITEGIC>MOL_PROPERTY
-TS
SciTegic.value.DoubleValue
32.986

@<SCITEGIC>MOL_PROPERTY
U+W
SciTegic.value.DoubleValue
28.067

@<SCITEGIC>MOL_PROPERTY
U
SciTegic.value.DoubleValue
76.549

@<SCITEGIC>MOL_PROPERTY
W
SciTegic.value.DoubleValue
-48.482

@<SCITEGIC>MOL_PROPERTY
W(PB)
SciTegic.value.DoubleValue
-50.645

@<SCITEGIC>MOL_PROPERTY
W(SA)
SciTegic.value.DoubleValue
2.163

@<SCITEGIC>MOL_PROPERTY
Valence
SciTegic.value.DoubleValue
5.808

@<SCITEGIC>MOL_PROPERTY
Coulomb
SciTegic.value.DoubleValue
71.052

@<SCITEGIC>MOL_PROPERTY
VdW
SciTegic.value.DoubleValue
-0.311

@<SCITEGIC>MOL_PROPERTY
VdW6
SciTegic.value.DoubleValue
-8.913

@<SCITEGIC>MOL_PROPERTY
VdW12
SciTegic.value.DoubleValue
8.602

@<SCITEGIC>MOL_PROPERTY
Bond
SciTegic.value.DoubleValue
0.232

@<SCITEGIC>MOL_PROPERTY
Angle
SciTegic.value.DoubleValue
1.493

@<SCITEGIC>MOL_PROPERTY
Pdih
SciTegic.value.DoubleValue
4.083

@<SCITEGIC>MOL_PROPERTY
Idih
SciTegic.value.DoubleValue
0.000

@<SCITEGIC>MOL_PROPERTY
Tether
SciTegic.value.DoubleValue
0.000

@<TRIPOS>MOLECULE
guest-s12_vm2.mol2 : vm2 ligand conformer 218
          26          25           1
SMALL
USER_CHARGES
 
@<TRIPOS>ATOM
       1    N1      19.333914   19.183958   25.074041 N.4        1 MOL1        -0.4857
       2    H1      19.015364   18.368679   25.620682 H          1 MOL1         0.3650
       3    H2      18.820234   19.139414   24.181717 H          1 MOL1         0.3650
       4    C1      20.824604   19.086098   24.813721 C.3        1 MOL1         0.0209
       5    H3      21.317095   19.073228   25.789350 H          1 MOL1         0.0967
       6    H4      21.145639   19.985494   24.282476 H          1 MOL1         0.0967
       7    C2      21.243476   17.832128   24.019532 C.3        1 MOL1        -0.1378
       8    H5      22.299146   17.631515   24.245652 H          1 MOL1         0.0993
       9    H6      20.689015   16.957061   24.383758 H          1 MOL1         0.0993
      10    C3      21.104373   17.953266   22.478368 C.3        1 MOL1        -0.1338
      11    H7      21.489726   17.022000   22.040586 H          1 MOL1         0.0993
      12    H8      21.769180   18.744694   22.109696 H          1 MOL1         0.0993
      13    C4      19.657971   18.164406   21.955016 C.3        1 MOL1        -0.1338
      14    H9      19.543201   17.619782   21.007449 H          1 MOL1         0.0993
      15    H10     18.942664   17.694174   22.642619 H          1 MOL1         0.0993
      16    C5      19.271548   19.646443   21.708403 C.3        1 MOL1        -0.1313
      17    H11     19.513986   20.266703   22.579707 H          1 MOL1         0.0993
      18    H12     18.182438   19.710526   21.575109 H          1 MOL1         0.0993
      19    C6      19.953097   20.245729   20.456807 C.3        1 MOL1        -0.2328
      20    H13     19.608621   21.274065   20.287055 H          1 MOL1         0.1004
      21    H14     19.713942   19.661359   19.558851 H          1 MOL1         0.1004
      22    H15     21.044236   20.276261   20.563177 H          1 MOL1         0.1004
      23    C7      19.019017   20.477973   25.811111 C.3        1 MOL1        -0.0781
      24    H16     19.552267   20.486634   26.764258 H          1 MOL1         0.0978
      25    H17     19.337983   21.325942   25.201124 H          1 MOL1         0.0978
      26    H18     17.943048   20.535906   25.990111 H          1 MOL1         0.0978
@<TRIPOS>BOND
    1     1     2    1
    2     1     3    1
    3     1     4    1
    4     4     5    1
    5     4     6    1
    6     4     7    1
    7     7     8    1
    8     7     9    1
    9     7    10    1
   10    10    11    1
   11    10    12    1
   12    10    13    1
   13    13    14    1
   14    13    15    1
   15    13    16    1
   16    16    17    1
   17    16    18    1
   18    16    19    1
   19    19    20    1
   20    19    21    1
   21    19    22    1
   22     1    23    1
   23    23    24    1
   24    23    25    1
   25    23    26    1
@<TRIPOS>SUBSTRUCTURE
       1 MOL1            1 RESIDUE      1      MOL     
@<SCITEGIC>MOL_PROPERTY
VM2 Rank
SciTegic.value.IntegerValue
218

@<SCITEGIC>MOL_PROPERTY
Conf_Id
SciTegic.value.IntegerValue
744

@<SCITEGIC>MOL_PROPERTY
Probability
SciTegic.value.DoubleValue
0.00

@<SCITEGIC>MOL_PROPERTY
Sum Probability
SciTegic.value.DoubleValue
100.00

@<SCITEGIC>MOL_PROPERTY
Delta G
SciTegic.value.DoubleValue
7.132

@<SCITEGIC>MOL_PROPERTY
G
SciTegic.value.DoubleValue
82.598

@<SCITEGIC>MOL_PROPERTY
E
SciTegic.value.DoubleValue
49.618

@<SCITEGIC>MOL_PROPERTY
-TS
SciTegic.value.DoubleValue
32.980

@<SCITEGIC>MOL_PROPERTY
U+W
SciTegic.value.DoubleValue
28.156

@<SCITEGIC>MOL_PROPERTY
U
SciTegic.value.DoubleValue
77.517

@<SCITEGIC>MOL_PROPERTY
W
SciTegic.value.DoubleValue
-49.361

@<SCITEGIC>MOL_PROPERTY
W(PB)
SciTegic.value.DoubleValue
-51.554

@<SCITEGIC>MOL_PROPERTY
W(SA)
SciTegic.value.DoubleValue
2.194

@<SCITEGIC>MOL_PROPERTY
Valence
SciTegic.value.DoubleValue
6.532

@<SCITEGIC>MOL_PROPERTY
Coulomb
SciTegic.value.DoubleValue
71.087

@<SCITEGIC>MOL_PROPERTY
VdW
SciTegic.value.DoubleValue
-0.102

@<SCITEGIC>MOL_PROPERTY
VdW6
SciTegic.value.DoubleValue
-9.038

@<SCITEGIC>MOL_PROPERTY
VdW12
SciTegic.value.DoubleValue
8.936

@<SCITEGIC>MOL_PROPERTY
Bond
SciTegic.value.DoubleValue
0.274

@<SCITEGIC>MOL_PROPERTY
Angle
SciTegic.value.DoubleValue
1.678

@<SCITEGIC>MOL_PROPERTY
Pdih
SciTegic.value.DoubleValue
4.580

@<SCITEGIC>MOL_PROPERTY
Idih
SciTegic.value.DoubleValue
0.000

@<SCITEGIC>MOL_PROPERTY
Tether
SciTegic.value.DoubleValue
0.000

@<TRIPOS>MOLECULE
guest-s12_vm2.mol2 : vm2 ligand conformer 219
          26          25           1
SMALL
USER_CHARGES
 
@<TRIPOS>ATOM
       1    N1      20.603687   19.315801   25.118954 N.4        1 MOL1        -0.4857
       2    H1      21.176644   19.384089   24.265050 H          1 MOL1         0.3650
       3    H2      21.043773   18.579312   25.692432 H          1 MOL1         0.3650
       4    C1      19.186720   18.915997   24.755829 C.3        1 MOL1         0.0209
       5    H3      18.725862   19.734209   24.196957 H          1 MOL1         0.0967
       6    H4      18.640417   18.795236   25.694728 H          1 MOL1         0.0967
       7    C2      19.090633   17.608574   23.943401 C.3        1 MOL1        -0.1378
       8    H5      19.786030   16.863280   24.351798 H          1 MOL1         0.0993
       9    H6      18.085433   17.193959   24.096640 H          1 MOL1         0.0993
      10    C3      19.309262   17.766912   22.414892 C.3        1 MOL1        -0.1338
      11    H7      18.523649   18.407786   21.994963 H          1 MOL1         0.0993
      12    H8      19.154722   16.779616   21.957980 H          1 MOL1         0.0993
      13    C4      20.714535   18.274122   21.992399 C.3        1 MOL1        -0.1338
      14    H9      21.461254   17.955688   22.731716 H          1 MOL1         0.0993
      15    H10     21.004559   17.771522   21.059152 H          1 MOL1         0.0993
      16    C5      20.804918   19.805665   21.762653 C.3        1 MOL1        -0.1313
      17    H11     21.864301   20.092839   21.705461 H          1 MOL1         0.0993
      18    H12     20.379970   20.356639   22.610308 H          1 MOL1         0.0993
      19    C6      20.104226   20.261400   20.462084 C.3        1 MOL1        -0.2328
      20    H13     20.520562   19.745161   19.587343 H          1 MOL1         0.1004
      21    H14     20.241270   21.339766   20.309439 H          1 MOL1         0.1004
      22    H15     19.025351   20.066485   20.491527 H          1 MOL1         0.1004
      23    C7      20.594019   20.641529   25.866790 C.3        1 MOL1        -0.0781
      24    H16     20.005070   20.533666   26.780258 H          1 MOL1         0.0978
      25    H17     21.619998   20.917760   26.120107 H          1 MOL1         0.0978
      26    H18     20.151226   21.410374   25.229854 H          1 MOL1         0.0978
@<TRIPOS>BOND
    1     1     2    1
    2     1     3    1
    3     1     4    1
    4     4     5    1
    5     4     6    1
    6     4     7    1
    7     7     8    1
    8     7     9    1
    9     7    10    1
   10    10    11    1
   11    10    12    1
   12    10    13    1
   13    13    14    1
   14    13    15    1
   15    13    16    1
   16    16    17    1
   17    16    18    1
   18    16    19    1
   19    19    20    1
   20    19    21    1
   21    19    22    1
   22     1    23    1
   23    23    24    1
   24    23    25    1
   25    23    26    1
@<TRIPOS>SUBSTRUCTURE
       1 MOL1            1 RESIDUE      1      MOL     
@<SCITEGIC>MOL_PROPERTY
VM2 Rank
SciTegic.value.IntegerValue
219

@<SCITEGIC>MOL_PROPERTY
Conf_Id
SciTegic.value.IntegerValue
1348

@<SCITEGIC>MOL_PROPERTY
Probability
SciTegic.value.DoubleValue
0.00

@<SCITEGIC>MOL_PROPERTY
Sum Probability
SciTegic.value.DoubleValue
100.00

@<SCITEGIC>MOL_PROPERTY
Delta G
SciTegic.value.DoubleValue
7.244

@<SCITEGIC>MOL_PROPERTY
G
SciTegic.value.DoubleValue
82.710

@<SCITEGIC>MOL_PROPERTY
E
SciTegic.value.DoubleValue
49.730

@<SCITEGIC>MOL_PROPERTY
-TS
SciTegic.value.DoubleValue
32.980

@<SCITEGIC>MOL_PROPERTY
U+W
SciTegic.value.DoubleValue
28.269

@<SCITEGIC>MOL_PROPERTY
U
SciTegic.value.DoubleValue
77.517

@<SCITEGIC>MOL_PROPERTY
W
SciTegic.value.DoubleValue
-49.248

@<SCITEGIC>MOL_PROPERTY
W(PB)
SciTegic.value.DoubleValue
-51.417

@<SCITEGIC>MOL_PROPERTY
W(SA)
SciTegic.value.DoubleValue
2.168

@<SCITEGIC>MOL_PROPERTY
Valence
SciTegic.value.DoubleValue
6.532

@<SCITEGIC>MOL_PROPERTY
Coulomb
SciTegic.value.DoubleValue
71.087

@<SCITEGIC>MOL_PROPERTY
VdW
SciTegic.value.DoubleValue
-0.102

@<SCITEGIC>MOL_PROPERTY
VdW6
SciTegic.value.DoubleValue
-9.038

@<SCITEGIC>MOL_PROPERTY
VdW12
SciTegic.value.DoubleValue
8.936

@<SCITEGIC>MOL_PROPERTY
Bond
SciTegic.value.DoubleValue
0.274

@<SCITEGIC>MOL_PROPERTY
Angle
SciTegic.value.DoubleValue
1.677

@<SCITEGIC>MOL_PROPERTY
Pdih
SciTegic.value.DoubleValue
4.581

@<SCITEGIC>MOL_PROPERTY
Idih
SciTegic.value.DoubleValue
0.000

@<SCITEGIC>MOL_PROPERTY
Tether
SciTegic.value.DoubleValue
0.000

@<TRIPOS>MOLECULE
guest-s12_vm2.mol2 : vm2 ligand conformer 220
          26          25           1
SMALL
USER_CHARGES
 
@<TRIPOS>ATOM
       1    N1      19.053543   18.663124   24.657199 N.4        1 MOL1        -0.4857
       2    H1      19.183434   18.295694   23.702640 H          1 MOL1         0.3650
       3    H2      18.031914   18.714782   24.797601 H          1 MOL1         0.3650
       4    C1      19.651760   20.057855   24.756237 C.3        1 MOL1         0.0209
       5    H3      19.561608   20.368775   25.800108 H          1 MOL1         0.0967
       6    H4      19.037823   20.731217   24.152876 H          1 MOL1         0.0967
       7    C2      21.127438   20.185829   24.313153 C.3        1 MOL1        -0.1378
       8    H5      21.519237   21.120766   24.735014 H          1 MOL1         0.0993
       9    H6      21.729722   19.385976   24.761944 H          1 MOL1         0.0993
      10    C3      21.357692   20.227321   22.778556 C.3        1 MOL1        -0.1338
      11    H7      22.432248   20.385325   22.611498 H          1 MOL1         0.0993
      12    H8      20.861709   21.108348   22.348076 H          1 MOL1         0.0993
      13    C4      20.935886   18.946892   22.013268 C.3        1 MOL1        -0.1338
      14    H9      21.668735   18.757623   21.216453 H          1 MOL1         0.0993
      15    H10     20.990614   18.073294   22.676490 H          1 MOL1         0.0993
      16    C5      19.538888   19.064942   21.356164 C.3        1 MOL1        -0.1313
      17    H11     19.576645   19.822702   20.560768 H          1 MOL1         0.0993
      18    H12     18.791997   19.421799   22.075469 H          1 MOL1         0.0993
      19    C6      19.074975   17.721331   20.754846 C.3        1 MOL1        -0.2328
      20    H13     19.779684   17.367920   19.990731 H          1 MOL1         0.1004
      21    H14     18.091145   17.828541   20.279677 H          1 MOL1         0.1004
      22    H15     18.992860   16.945425   21.526883 H          1 MOL1         0.1004
      23    C7      19.667819   17.722705   25.687577 C.3        1 MOL1        -0.0781
      24    H16     19.506869   18.132250   26.687153 H          1 MOL1         0.0978
      25    H17     19.188467   16.744403   25.608939 H          1 MOL1         0.0978
      26    H18     20.737881   17.623082   25.495923 H          1 MOL1         0.0978
@<TRIPOS>BOND
    1     1     2    1
    2     1     3    1
    3     1     4    1
    4     4     5    1
    5     4     6    1
    6     4     7    1
    7     7     8    1
    8     7     9    1
    9     7    10    1
   10    10    11    1
   11    10    12    1
   12    10    13    1
   13    13    14    1
   14    13    15    1
   15    13    16    1
   16    16    17    1
   17    16    18    1
   18    16    19    1
   19    19    20    1
   20    19    21    1
   21    19    22    1
   22     1    23    1
   23    23    24    1
   24    23    25    1
   25    23    26    1
@<TRIPOS>SUBSTRUCTURE
       1 MOL1            1 RESIDUE      1      MOL     
@<SCITEGIC>MOL_PROPERTY
VM2 Rank
SciTegic.value.IntegerValue
220

@<SCITEGIC>MOL_PROPERTY
Conf_Id
SciTegic.value.IntegerValue
795

@<SCITEGIC>MOL_PROPERTY
Probability
SciTegic.value.DoubleValue
0.00

@<SCITEGIC>MOL_PROPERTY
Sum Probability
SciTegic.value.DoubleValue
100.00

@<SCITEGIC>MOL_PROPERTY
Delta G
SciTegic.value.DoubleValue
7.511

@<SCITEGIC>MOL_PROPERTY
G
SciTegic.value.DoubleValue
82.977

@<SCITEGIC>MOL_PROPERTY
E
SciTegic.value.DoubleValue
49.844

@<SCITEGIC>MOL_PROPERTY
-TS
SciTegic.value.DoubleValue
33.133

@<SCITEGIC>MOL_PROPERTY
U+W
SciTegic.value.DoubleValue
28.382

@<SCITEGIC>MOL_PROPERTY
U
SciTegic.value.DoubleValue
77.224

@<SCITEGIC>MOL_PROPERTY
W
SciTegic.value.DoubleValue
-48.842

@<SCITEGIC>MOL_PROPERTY
W(PB)
SciTegic.value.DoubleValue
-51.015

@<SCITEGIC>MOL_PROPERTY
W(SA)
SciTegic.value.DoubleValue
2.173

@<SCITEGIC>MOL_PROPERTY
Valence
SciTegic.value.DoubleValue
6.171

@<SCITEGIC>MOL_PROPERTY
Coulomb
SciTegic.value.DoubleValue
71.061

@<SCITEGIC>MOL_PROPERTY
VdW
SciTegic.value.DoubleValue
-0.008

@<SCITEGIC>MOL_PROPERTY
VdW6
SciTegic.value.DoubleValue
-9.540

@<SCITEGIC>MOL_PROPERTY
VdW12
SciTegic.value.DoubleValue
9.532

@<SCITEGIC>MOL_PROPERTY
Bond
SciTegic.value.DoubleValue
0.273

@<SCITEGIC>MOL_PROPERTY
Angle
SciTegic.value.DoubleValue
1.632

@<SCITEGIC>MOL_PROPERTY
Pdih
SciTegic.value.DoubleValue
4.266

@<SCITEGIC>MOL_PROPERTY
Idih
SciTegic.value.DoubleValue
0.000

@<SCITEGIC>MOL_PROPERTY
Tether
SciTegic.value.DoubleValue
0.000

@<TRIPOS>MOLECULE
guest-s12_vm2.mol2 : vm2 ligand conformer 221
          26          25           1
SMALL
USER_CHARGES
 
@<TRIPOS>ATOM
       1    N1      20.191360   20.092803   24.923735 N.4        1 MOL1        -0.4857
       2    H1      19.709711   20.329324   24.044091 H          1 MOL1         0.3650
       3    H2      20.813099   20.892801   25.122408 H          1 MOL1         0.3650
       4    C1      21.025133   18.835712   24.733151 C.3        1 MOL1         0.0209
       5    H3      21.439910   18.578585   25.711059 H          1 MOL1         0.0967
       6    H4      21.858773   19.081132   24.070387 H          1 MOL1         0.0967
       7    C2      20.269398   17.613548   24.163550 C.3        1 MOL1        -0.1378
       8    H5      20.857122   16.718894   24.407982 H          1 MOL1         0.0993
       9    H6      19.308872   17.484105   24.677870 H          1 MOL1         0.0993
      10    C3      20.054293   17.630719   22.626783 C.3        1 MOL1        -0.1338
      11    H7      19.583953   16.676991   22.350119 H          1 MOL1         0.0993
      12    H8      21.027157   17.634062   22.118829 H          1 MOL1         0.0993
      13    C4      19.153825   18.779404   22.098181 C.3        1 MOL1        -0.1338
      14    H9      18.513330   18.386908   21.296087 H          1 MOL1         0.0993
      15    H10     18.459602   19.099979   22.886344 H          1 MOL1         0.0993
      16    C5      19.935019   19.997963   21.541504 C.3        1 MOL1        -0.1313
      17    H11     20.709411   20.321960   22.247577 H          1 MOL1         0.0993
      18    H12     19.241376   20.843117   21.428965 H          1 MOL1         0.0993
      19    C6      20.588942   19.715253   20.169417 C.3        1 MOL1        -0.2328
      20    H13     21.089463   20.615213   19.789273 H          1 MOL1         0.1004
      21    H14     19.837232   19.413535   19.428524 H          1 MOL1         0.1004
      22    H15     21.341761   18.920224   20.233931 H          1 MOL1         0.1004
      23    C7      19.190030   19.924598   26.060680 C.3        1 MOL1        -0.0781
      24    H16     18.636311   20.857194   26.189900 H          1 MOL1         0.0978
      25    H17     18.496648   19.117268   25.817531 H          1 MOL1         0.0978
      26    H18     19.728870   19.685966   26.980186 H          1 MOL1         0.0978
@<TRIPOS>BOND
    1     1     2    1
    2     1     3    1
    3     1     4    1
    4     4     5    1
    5     4     6    1
    6     4     7    1
    7     7     8    1
    8     7     9    1
    9     7    10    1
   10    10    11    1
   11    10    12    1
   12    10    13    1
   13    13    14    1
   14    13    15    1
   15    13    16    1
   16    16    17    1
   17    16    18    1
   18    16    19    1
   19    19    20    1
   20    19    21    1
   21    19    22    1
   22     1    23    1
   23    23    24    1
   24    23    25    1
   25    23    26    1
@<TRIPOS>SUBSTRUCTURE
       1 MOL1            1 RESIDUE      1      MOL     
@<SCITEGIC>MOL_PROPERTY
VM2 Rank
SciTegic.value.IntegerValue
221

@<SCITEGIC>MOL_PROPERTY
Conf_Id
SciTegic.value.IntegerValue
544

@<SCITEGIC>MOL_PROPERTY
Probability
SciTegic.value.DoubleValue
0.00

@<SCITEGIC>MOL_PROPERTY
Sum Probability
SciTegic.value.DoubleValue
100.00

@<SCITEGIC>MOL_PROPERTY
Delta G
SciTegic.value.DoubleValue
7.524

@<SCITEGIC>MOL_PROPERTY
G
SciTegic.value.DoubleValue
82.990

@<SCITEGIC>MOL_PROPERTY
E
SciTegic.value.DoubleValue
49.909

@<SCITEGIC>MOL_PROPERTY
-TS
SciTegic.value.DoubleValue
33.080

@<SCITEGIC>MOL_PROPERTY
U+W
SciTegic.value.DoubleValue
28.448

@<SCITEGIC>MOL_PROPERTY
U
SciTegic.value.DoubleValue
78.200

@<SCITEGIC>MOL_PROPERTY
W
SciTegic.value.DoubleValue
-49.752

@<SCITEGIC>MOL_PROPERTY
W(PB)
SciTegic.value.DoubleValue
-51.918

@<SCITEGIC>MOL_PROPERTY
W(SA)
SciTegic.value.DoubleValue
2.166

@<SCITEGIC>MOL_PROPERTY
Valence
SciTegic.value.DoubleValue
6.881

@<SCITEGIC>MOL_PROPERTY
Coulomb
SciTegic.value.DoubleValue
71.120

@<SCITEGIC>MOL_PROPERTY
VdW
SciTegic.value.DoubleValue
0.200

@<SCITEGIC>MOL_PROPERTY
VdW6
SciTegic.value.DoubleValue
-9.619

@<SCITEGIC>MOL_PROPERTY
VdW12
SciTegic.value.DoubleValue
9.818

@<SCITEGIC>MOL_PROPERTY
Bond
SciTegic.value.DoubleValue
0.310

@<SCITEGIC>MOL_PROPERTY
Angle
SciTegic.value.DoubleValue
1.756

@<SCITEGIC>MOL_PROPERTY
Pdih
SciTegic.value.DoubleValue
4.815

@<SCITEGIC>MOL_PROPERTY
Idih
SciTegic.value.DoubleValue
0.000

@<SCITEGIC>MOL_PROPERTY
Tether
SciTegic.value.DoubleValue
0.000

@<TRIPOS>MOLECULE
guest-s12_vm2.mol2 : vm2 ligand conformer 222
          26          25           1
SMALL
USER_CHARGES
 
@<TRIPOS>ATOM
       1    N1      21.010955   18.856799   24.726783 N.4        1 MOL1        -0.4857
       2    H1      21.990306   19.106521   24.938005 H          1 MOL1         0.3650
       3    H2      21.022727   18.477397   23.768151 H          1 MOL1         0.3650
       4    C1      20.145864   20.106745   24.773619 C.3        1 MOL1         0.0209
       5    H3      20.656914   20.891299   24.209987 H          1 MOL1         0.0967
       6    H4      20.099936   20.422273   25.818988 H          1 MOL1         0.0967
       7    C2      18.708488   19.946329   24.227233 C.3        1 MOL1        -0.1378
       8    H5      18.244505   19.040965   24.638280 H          1 MOL1         0.0993
       9    H6      18.112596   20.783532   24.613994 H          1 MOL1         0.0993
      10    C3      18.582806   19.952463   22.680013 C.3        1 MOL1        -0.1338
      11    H7      18.925470   20.916552   22.279223 H          1 MOL1         0.0993
      12    H8      17.512540   19.897969   22.436894 H          1 MOL1         0.0993
      13    C4      19.299987   18.784844   21.955165 C.3        1 MOL1        -0.1338
      14    H9      19.370988   17.912841   22.618943 H          1 MOL1         0.0993
      15    H10     18.676245   18.461257   21.110157 H          1 MOL1         0.0993
      16    C5      20.689441   19.178852   21.397033 C.3        1 MOL1        -0.1313
      17    H11     21.299646   19.669824   22.164616 H          1 MOL1         0.0993
      18    H12     20.559967   19.920276   20.595905 H          1 MOL1         0.0993
      19    C6      21.448493   17.956452   20.838758 C.3        1 MOL1        -0.2328
      20    H13     20.882008   17.477431   20.029426 H          1 MOL1         0.1004
      21    H14     21.626584   17.206090   21.619817 H          1 MOL1         0.1004
      22    H15     22.423147   18.257646   20.433130 H          1 MOL1         0.1004
      23    C7      20.521966   17.807515   25.718395 C.3        1 MOL1        -0.0781
      24    H16     20.529120   18.234040   26.723785 H          1 MOL1         0.0978
      25    H17     19.508242   17.501571   25.452970 H          1 MOL1         0.0978
      26    H18     21.187886   16.942551   25.680653 H          1 MOL1         0.0978
@<TRIPOS>BOND
    1     1     2    1
    2     1     3    1
    3     1     4    1
    4     4     5    1
    5     4     6    1
    6     4     7    1
    7     7     8    1
    8     7     9    1
    9     7    10    1
   10    10    11    1
   11    10    12    1
   12    10    13    1
   13    13    14    1
   14    13    15    1
   15    13    16    1
   16    16    17    1
   17    16    18    1
   18    16    19    1
   19    19    20    1
   20    19    21    1
   21    19    22    1
   22     1    23    1
   23    23    24    1
   24    23    25    1
   25    23    26    1
@<TRIPOS>SUBSTRUCTURE
       1 MOL1            1 RESIDUE      1      MOL     
@<SCITEGIC>MOL_PROPERTY
VM2 Rank
SciTegic.value.IntegerValue
222

@<SCITEGIC>MOL_PROPERTY
Conf_Id
SciTegic.value.IntegerValue
1828

@<SCITEGIC>MOL_PROPERTY
Probability
SciTegic.value.DoubleValue
0.00

@<SCITEGIC>MOL_PROPERTY
Sum Probability
SciTegic.value.DoubleValue
100.00

@<SCITEGIC>MOL_PROPERTY
Delta G
SciTegic.value.DoubleValue
7.535

@<SCITEGIC>MOL_PROPERTY
G
SciTegic.value.DoubleValue
83.001

@<SCITEGIC>MOL_PROPERTY
E
SciTegic.value.DoubleValue
49.868

@<SCITEGIC>MOL_PROPERTY
-TS
SciTegic.value.DoubleValue
33.133

@<SCITEGIC>MOL_PROPERTY
U+W
SciTegic.value.DoubleValue
28.406

@<SCITEGIC>MOL_PROPERTY
U
SciTegic.value.DoubleValue
77.224

@<SCITEGIC>MOL_PROPERTY
W
SciTegic.value.DoubleValue
-48.817

@<SCITEGIC>MOL_PROPERTY
W(PB)
SciTegic.value.DoubleValue
-51.000

@<SCITEGIC>MOL_PROPERTY
W(SA)
SciTegic.value.DoubleValue
2.183

@<SCITEGIC>MOL_PROPERTY
Valence
SciTegic.value.DoubleValue
6.170

@<SCITEGIC>MOL_PROPERTY
Coulomb
SciTegic.value.DoubleValue
71.061

@<SCITEGIC>MOL_PROPERTY
VdW
SciTegic.value.DoubleValue
-0.008

@<SCITEGIC>MOL_PROPERTY
VdW6
SciTegic.value.DoubleValue
-9.539

@<SCITEGIC>MOL_PROPERTY
VdW12
SciTegic.value.DoubleValue
9.532

@<SCITEGIC>MOL_PROPERTY
Bond
SciTegic.value.DoubleValue
0.273

@<SCITEGIC>MOL_PROPERTY
Angle
SciTegic.value.DoubleValue
1.632

@<SCITEGIC>MOL_PROPERTY
Pdih
SciTegic.value.DoubleValue
4.265

@<SCITEGIC>MOL_PROPERTY
Idih
SciTegic.value.DoubleValue
0.000

@<SCITEGIC>MOL_PROPERTY
Tether
SciTegic.value.DoubleValue
0.000

@<TRIPOS>MOLECULE
guest-s12_vm2.mol2 : vm2 ligand conformer 223
          26          25           1
SMALL
USER_CHARGES
 
@<TRIPOS>ATOM
       1    N1      19.456864   18.422276   25.450089 N.4        1 MOL1        -0.4857
       2    H1      19.315334   17.854599   26.300546 H          1 MOL1         0.3650
       3    H2      18.937721   17.927981   24.709603 H          1 MOL1         0.3650
       4    C1      20.939132   18.465253   25.117150 C.3        1 MOL1         0.0209
       5    H3      21.371735   17.541170   25.509050 H          1 MOL1         0.0967
       6    H4      21.387536   19.297366   25.665562 H          1 MOL1         0.0967
       7    C2      21.300605   18.556438   23.615579 C.3        1 MOL1        -0.1378
       8    H5      22.391213   18.454246   23.540297 H          1 MOL1         0.0993
       9    H6      20.883710   17.692847   23.084393 H          1 MOL1         0.0993
      10    C3      20.894678   19.885152   22.924007 C.3        1 MOL1        -0.1338
      11    H7      21.636004   20.133899   22.152212 H          1 MOL1         0.0993
      12    H8      20.957874   20.700787   23.657203 H          1 MOL1         0.0993
      13    C4      19.481993   19.872064   22.278722 C.3        1 MOL1        -0.1338
      14    H9      18.807685   19.205618   22.830455 H          1 MOL1         0.0993
      15    H10     19.051811   20.878532   22.374603 H          1 MOL1         0.0993
      16    C5      19.468206   19.498701   20.774297 C.3        1 MOL1        -0.1313
      17    H11     20.073623   20.221446   20.209587 H          1 MOL1         0.0993
      18    H12     18.441229   19.602718   20.397050 H          1 MOL1         0.0993
      19    C6      19.964292   18.067235   20.472705 C.3        1 MOL1        -0.2328
      20    H13     21.028357   17.953628   20.714391 H          1 MOL1         0.1004
      21    H14     19.842989   17.835916   19.406574 H          1 MOL1         0.1004
      22    H15     19.395131   17.322437   21.043653 H          1 MOL1         0.1004
      23    C7      18.902229   19.822882   25.684451 C.3        1 MOL1        -0.0781
      24    H16     19.444731   20.288263   26.510205 H          1 MOL1         0.0978
      25    H17     19.024961   20.420754   24.780480 H          1 MOL1         0.0978
      26    H18     17.841898   19.749599   25.936101 H          1 MOL1         0.0978
@<TRIPOS>BOND
    1     1     2    1
    2     1     3    1
    3     1     4    1
    4     4     5    1
    5     4     6    1
    6     4     7    1
    7     7     8    1
    8     7     9    1
    9     7    10    1
   10    10    11    1
   11    10    12    1
   12    10    13    1
   13    13    14    1
   14    13    15    1
   15    13    16    1
   16    16    17    1
   17    16    18    1
   18    16    19    1
   19    19    20    1
   20    19    21    1
   21    19    22    1
   22     1    23    1
   23    23    24    1
   24    23    25    1
   25    23    26    1
@<TRIPOS>SUBSTRUCTURE
       1 MOL1            1 RESIDUE      1      MOL     
@<SCITEGIC>MOL_PROPERTY
VM2 Rank
SciTegic.value.IntegerValue
223

@<SCITEGIC>MOL_PROPERTY
Conf_Id
SciTegic.value.IntegerValue
275

@<SCITEGIC>MOL_PROPERTY
Probability
SciTegic.value.DoubleValue
0.00

@<SCITEGIC>MOL_PROPERTY
Sum Probability
SciTegic.value.DoubleValue
100.00

@<SCITEGIC>MOL_PROPERTY
Delta G
SciTegic.value.DoubleValue
7.917

@<SCITEGIC>MOL_PROPERTY
G
SciTegic.value.DoubleValue
83.383

@<SCITEGIC>MOL_PROPERTY
E
SciTegic.value.DoubleValue
50.049

@<SCITEGIC>MOL_PROPERTY
-TS
SciTegic.value.DoubleValue
33.334

@<SCITEGIC>MOL_PROPERTY
U+W
SciTegic.value.DoubleValue
28.587

@<SCITEGIC>MOL_PROPERTY
U
SciTegic.value.DoubleValue
78.886

@<SCITEGIC>MOL_PROPERTY
W
SciTegic.value.DoubleValue
-50.298

@<SCITEGIC>MOL_PROPERTY
W(PB)
SciTegic.value.DoubleValue
-52.462

@<SCITEGIC>MOL_PROPERTY
W(SA)
SciTegic.value.DoubleValue
2.164

@<SCITEGIC>MOL_PROPERTY
Valence
SciTegic.value.DoubleValue
8.514

@<SCITEGIC>MOL_PROPERTY
Coulomb
SciTegic.value.DoubleValue
70.280

@<SCITEGIC>MOL_PROPERTY
VdW
SciTegic.value.DoubleValue
0.092

@<SCITEGIC>MOL_PROPERTY
VdW6
SciTegic.value.DoubleValue
-9.823

@<SCITEGIC>MOL_PROPERTY
VdW12
SciTegic.value.DoubleValue
9.914

@<SCITEGIC>MOL_PROPERTY
Bond
SciTegic.value.DoubleValue
0.314

@<SCITEGIC>MOL_PROPERTY
Angle
SciTegic.value.DoubleValue
1.918

@<SCITEGIC>MOL_PROPERTY
Pdih
SciTegic.value.DoubleValue
6.283

@<SCITEGIC>MOL_PROPERTY
Idih
SciTegic.value.DoubleValue
0.000

@<SCITEGIC>MOL_PROPERTY
Tether
SciTegic.value.DoubleValue
0.000

@<TRIPOS>MOLECULE
guest-s12_vm2.mol2 : vm2 ligand conformer 224
          26          25           1
SMALL
USER_CHARGES
 
@<TRIPOS>ATOM
       1    N1      20.676537   18.634059   24.826208 N.4        1 MOL1        -0.4857
       2    H1      21.162129   19.102258   24.047815 H          1 MOL1         0.3650
       3    H2      20.742744   17.623760   24.629309 H          1 MOL1         0.3650
       4    C1      19.223697   19.061878   24.856666 C.3        1 MOL1         0.0209
       5    H3      19.181565   20.111649   25.157477 H          1 MOL1         0.0967
       6    H4      18.733706   18.467922   25.632338 H          1 MOL1         0.0967
       7    C2      18.468520   18.875647   23.523399 C.3        1 MOL1        -0.1378
       8    H5      18.681248   17.894231   23.085543 H          1 MOL1         0.0993
       9    H6      17.396177   18.859793   23.759148 H          1 MOL1         0.0993
      10    C3      18.698723   20.014364   22.495766 C.3        1 MOL1        -0.1338
      11    H7      18.424703   20.965867   22.972335 H          1 MOL1         0.0993
      12    H8      17.985899   19.887549   21.669305 H          1 MOL1         0.0993
      13    C4      20.124633   20.161808   21.897923 C.3        1 MOL1        -0.1338
      14    H9      20.122484   21.091451   21.311760 H          1 MOL1         0.0993
      15    H10     20.873311   20.329707   22.680599 H          1 MOL1         0.0993
      16    C5      20.561833   19.022659   20.939500 C.3        1 MOL1        -0.1313
      17    H11     21.235949   19.451625   20.184664 H          1 MOL1         0.0993
      18    H12     19.694996   18.640854   20.382341 H          1 MOL1         0.0993
      19    C6      21.310026   17.855987   21.623807 C.3        1 MOL1        -0.2328
      20    H13     21.673700   17.146996   20.868648 H          1 MOL1         0.1004
      21    H14     20.664129   17.294250   22.305244 H          1 MOL1         0.1004
      22    H15     22.183678   18.216411   22.181591 H          1 MOL1         0.1004
      23    C7      21.344031   18.963598   26.153731 C.3        1 MOL1        -0.0781
      24    H16     22.389604   18.649698   26.117182 H          1 MOL1         0.0978
      25    H17     21.287804   20.040594   26.326427 H          1 MOL1         0.0978
      26    H18     20.827494   18.432871   26.956495 H          1 MOL1         0.0978
@<TRIPOS>BOND
    1     1     2    1
    2     1     3    1
    3     1     4    1
    4     4     5    1
    5     4     6    1
    6     4     7    1
    7     7     8    1
    8     7     9    1
    9     7    10    1
   10    10    11    1
   11    10    12    1
   12    10    13    1
   13    13    14    1
   14    13    15    1
   15    13    16    1
   16    16    17    1
   17    16    18    1
   18    16    19    1
   19    19    20    1
   20    19    21    1
   21    19    22    1
   22     1    23    1
   23    23    24    1
   24    23    25    1
   25    23    26    1
@<TRIPOS>SUBSTRUCTURE
       1 MOL1            1 RESIDUE      1      MOL     
@<SCITEGIC>MOL_PROPERTY
VM2 Rank
SciTegic.value.IntegerValue
224

@<SCITEGIC>MOL_PROPERTY
Conf_Id
SciTegic.value.IntegerValue
816

@<SCITEGIC>MOL_PROPERTY
Probability
SciTegic.value.DoubleValue
0.00

@<SCITEGIC>MOL_PROPERTY
Sum Probability
SciTegic.value.DoubleValue
100.00

@<SCITEGIC>MOL_PROPERTY
Delta G
SciTegic.value.DoubleValue
8.647

@<SCITEGIC>MOL_PROPERTY
G
SciTegic.value.DoubleValue
84.113

@<SCITEGIC>MOL_PROPERTY
E
SciTegic.value.DoubleValue
51.101

@<SCITEGIC>MOL_PROPERTY
-TS
SciTegic.value.DoubleValue
33.012

@<SCITEGIC>MOL_PROPERTY
U+W
SciTegic.value.DoubleValue
29.639

@<SCITEGIC>MOL_PROPERTY
U
SciTegic.value.DoubleValue
78.058

@<SCITEGIC>MOL_PROPERTY
W
SciTegic.value.DoubleValue
-48.419

@<SCITEGIC>MOL_PROPERTY
W(PB)
SciTegic.value.DoubleValue
-50.583

@<SCITEGIC>MOL_PROPERTY
W(SA)
SciTegic.value.DoubleValue
2.164

@<SCITEGIC>MOL_PROPERTY
Valence
SciTegic.value.DoubleValue
6.916

@<SCITEGIC>MOL_PROPERTY
Coulomb
SciTegic.value.DoubleValue
71.697

@<SCITEGIC>MOL_PROPERTY
VdW
SciTegic.value.DoubleValue
-0.555

@<SCITEGIC>MOL_PROPERTY
VdW6
SciTegic.value.DoubleValue
-9.228

@<SCITEGIC>MOL_PROPERTY
VdW12
SciTegic.value.DoubleValue
8.672

@<SCITEGIC>MOL_PROPERTY
Bond
SciTegic.value.DoubleValue
0.274

@<SCITEGIC>MOL_PROPERTY
Angle
SciTegic.value.DoubleValue
2.757

@<SCITEGIC>MOL_PROPERTY
Pdih
SciTegic.value.DoubleValue
3.885

@<SCITEGIC>MOL_PROPERTY
Idih
SciTegic.value.DoubleValue
0.000

@<SCITEGIC>MOL_PROPERTY
Tether
SciTegic.value.DoubleValue
0.000

