VeraChem MOL file


 26 25  0  0  0  0  0  0  0  0999 V2000     
   20.2415   18.6564   18.8060 C   0  0  0  0  0  0  0  0  0  0  0  0
   19.6045   19.4971   18.5017 H   0  0  0  0  0  0  0  0  0  0  0  0
   21.0558   18.5689   18.0750 H   0  0  0  0  0  0  0  0  0  0  0  0
   19.6426   17.7377   18.7548 H   0  0  0  0  0  0  0  0  0  0  0  0
   20.8051   18.8729   20.2264 C   0  0  0  0  0  0  0  0  0  0  0  0
   21.4263   19.7795   20.2377 H   0  0  0  0  0  0  0  0  0  0  0  0
   21.4643   18.0335   20.4887 H   0  0  0  0  0  0  0  0  0  0  0  0
   19.6784   18.9994   21.2757 C   0  0  0  0  0  0  0  0  0  0  0  0
   19.0207   19.8375   21.0067 H   0  0  0  0  0  0  0  0  0  0  0  0
   19.0593   18.0917   21.2594 H   0  0  0  0  0  0  0  0  0  0  0  0
   20.2389   19.2172   22.6994 C   0  0  0  0  0  0  0  0  0  0  0  0
   20.8550   20.1272   22.7151 H   0  0  0  0  0  0  0  0  0  0  0  0
   20.8999   18.3792   22.9576 H   0  0  0  0  0  0  0  0  0  0  0  0
   19.1076   19.3422   23.7488 C   0  0  0  0  0  0  0  0  0  0  0  0
   18.4279   20.1490   23.4433 H   0  0  0  0  0  0  0  0  0  0  0  0
   18.5118   18.4198   23.7646 H   0  0  0  0  0  0  0  0  0  0  0  0
   19.6331   19.6456   25.1687 C   0  0  1  0  0  0  0  0  0  0  0  0
   20.2418   20.5539   25.1222 H   0  0  0  0  0  0  0  0  0  0  0  0
   18.4605   19.8996   26.1296 C   0  0  0  0  0  0  0  0  0  0  0  0
   17.8446   20.7376   25.7802 H   0  0  0  0  0  0  0  0  0  0  0  0
   18.8276   20.1521   27.1320 H   0  0  0  0  0  0  0  0  0  0  0  0
   17.8173   19.0147   26.2139 H   0  0  0  0  0  0  0  0  0  0  0  0
   20.5229   18.5547   25.6994 N   0  3  0  0  0  0  0  0  0  0  0  0
   21.3337   18.4050   25.0931 H   0  0  0  0  0  0  0  0  0  0  0  0
   20.8770   18.7816   26.6330 H   0  0  0  0  0  0  0  0  0  0  0  0
   20.0218   17.6652   25.7697 H   0  0  0  0  0  0  0  0  0  0  0  0
  1  2  1  0  0  0  0
  1  3  1  0  0  0  0
  1  4  1  0  0  0  0
  1  5  1  0  0  0  0
  5  6  1  0  0  0  0
  5  7  1  0  0  0  0
  5  8  1  0  0  0  0
  8  9  1  0  0  0  0
  8 10  1  0  0  0  0
  8 11  1  0  0  0  0
 11 12  1  0  0  0  0
 11 13  1  0  0  0  0
 11 14  1  0  0  0  0
 14 15  1  0  0  0  0
 14 16  1  0  0  0  0
 14 17  1  0  0  0  0
 17 18  1  0  0  0  0
 17 19  1  0  0  0  0
 19 20  1  0  0  0  0
 19 21  1  0  0  0  0
 19 22  1  0  0  0  0
 17 23  1  0  0  0  0
 23 24  1  0  0  0  0
 23 25  1  0  0  0  0
 23 26  1  0  0  0  0
M  END
> <VM2 Rank>
1

> <Conf_Id>
300

> <Probability>
17.04

> <Sum Probability>
17.04

> <Delta G>
0.000

> <G>
23.710

> <E>
-8.843

> <-TS>
32.552

> <U+W>
-30.304

> <U>
23.517

> <W>
-53.818

> <W(PB)>
-56.163

> <W(SA)>
2.346

> <Valence>
2.737

> <Coulomb>
19.862

> <VdW>
0.919

> <VdW6>
-6.793

> <VdW12>
7.712

> <Bond>
0.171

> <Angle>
0.873

> <Pdih>
1.693

> <Idih>
0.000

> <Tether>
0.000

$$$$
VeraChem MOL file


 26 25  0  0  0  0  0  0  0  0999 V2000     
   20.2648   18.6437   18.8026 C   0  0  0  0  0  0  0  0  0  0  0  0
   20.3175   19.2783   17.9084 H   0  0  0  0  0  0  0  0  0  0  0  0
   21.1735   18.0284   18.8331 H   0  0  0  0  0  0  0  0  0  0  0  0
   19.4021   17.9742   18.6902 H   0  0  0  0  0  0  0  0  0  0  0  0
   20.1356   19.5062   20.0760 C   0  0  0  0  0  0  0  0  0  0  0  0
   19.2370   20.1345   20.0009 H   0  0  0  0  0  0  0  0  0  0  0  0
   20.9948   20.1883   20.1429 H   0  0  0  0  0  0  0  0  0  0  0  0
   20.0595   18.6366   21.3505 C   0  0  0  0  0  0  0  0  0  0  0  0
   19.2005   17.9552   21.2782 H   0  0  0  0  0  0  0  0  0  0  0  0
   20.9585   18.0084   21.4186 H   0  0  0  0  0  0  0  0  0  0  0  0
   19.9304   19.4968   22.6282 C   0  0  0  0  0  0  0  0  0  0  0  0
   19.0346   20.1260   22.5455 H   0  0  0  0  0  0  0  0  0  0  0  0
   20.7923   20.1746   22.7022 H   0  0  0  0  0  0  0  0  0  0  0  0
   19.8499   18.6222   23.9036 C   0  0  0  0  0  0  0  0  0  0  0  0
   18.9532   17.9896   23.8630 H   0  0  0  0  0  0  0  0  0  0  0  0
   20.7109   17.9408   23.9148 H   0  0  0  0  0  0  0  0  0  0  0  0
   19.8535   19.4355   25.2183 C   0  0  1  0  0  0  0  0  0  0  0  0
   20.7326   20.0873   25.2161 H   0  0  0  0  0  0  0  0  0  0  0  0
   18.5968   20.3129   25.3618 C   0  0  0  0  0  0  0  0  0  0  0  0
   17.6825   19.7092   25.3054 H   0  0  0  0  0  0  0  0  0  0  0  0
   18.5527   21.0781   24.5782 H   0  0  0  0  0  0  0  0  0  0  0  0
   18.5995   20.8366   26.3256 H   0  0  0  0  0  0  0  0  0  0  0  0
   19.9974   18.5340   26.4131 N   0  3  0  0  0  0  0  0  0  0  0  0
   19.2077   17.8877   26.4919 H   0  0  0  0  0  0  0  0  0  0  0  0
   20.8513   17.9713   26.3608 H   0  0  0  0  0  0  0  0  0  0  0  0
   20.0403   19.0710   27.2839 H   0  0  0  0  0  0  0  0  0  0  0  0
  1  2  1  0  0  0  0
  1  3  1  0  0  0  0
  1  4  1  0  0  0  0
  1  5  1  0  0  0  0
  5  6  1  0  0  0  0
  5  7  1  0  0  0  0
  5  8  1  0  0  0  0
  8  9  1  0  0  0  0
  8 10  1  0  0  0  0
  8 11  1  0  0  0  0
 11 12  1  0  0  0  0
 11 13  1  0  0  0  0
 11 14  1  0  0  0  0
 14 15  1  0  0  0  0
 14 16  1  0  0  0  0
 14 17  1  0  0  0  0
 17 18  1  0  0  0  0
 17 19  1  0  0  0  0
 19 20  1  0  0  0  0
 19 21  1  0  0  0  0
 19 22  1  0  0  0  0
 17 23  1  0  0  0  0
 23 24  1  0  0  0  0
 23 25  1  0  0  0  0
 23 26  1  0  0  0  0
M  END
> <VM2 Rank>
2

> <Conf_Id>
54

> <Probability>
7.70

> <Sum Probability>
24.74

> <Delta G>
0.474

> <G>
24.184

> <E>
-8.383

> <-TS>
32.567

> <U+W>
-29.845

> <U>
23.817

> <W>
-53.663

> <W(PB)>
-56.021

> <W(SA)>
2.358

> <Valence>
3.277

> <Coulomb>
19.492

> <VdW>
1.049

> <VdW6>
-6.949

> <VdW12>
7.998

> <Bond>
0.183

> <Angle>
1.152

> <Pdih>
1.942

> <Idih>
0.000

> <Tether>
0.000

$$$$
VeraChem MOL file


 26 25  0  0  0  0  0  0  0  0999 V2000     
   20.3613   18.7664   18.8989 C   0  0  0  0  0  0  0  0  0  0  0  0
   20.3290   17.9289   18.1900 H   0  0  0  0  0  0  0  0  0  0  0  0
   19.6208   19.5099   18.5761 H   0  0  0  0  0  0  0  0  0  0  0  0
   21.3567   19.2248   18.8339 H   0  0  0  0  0  0  0  0  0  0  0  0
   20.0681   18.2779   20.3333 C   0  0  0  0  0  0  0  0  0  0  0  0
   20.8039   17.5117   20.6148 H   0  0  0  0  0  0  0  0  0  0  0  0
   19.0814   17.7946   20.3590 H   0  0  0  0  0  0  0  0  0  0  0  0
   20.1074   19.4385   21.3521 C   0  0  0  0  0  0  0  0  0  0  0  0
   21.0947   19.9198   21.3202 H   0  0  0  0  0  0  0  0  0  0  0  0
   19.3720   20.2027   21.0647 H   0  0  0  0  0  0  0  0  0  0  0  0
   19.8141   18.9535   22.7899 C   0  0  0  0  0  0  0  0  0  0  0  0
   20.5512   18.1892   23.0694 H   0  0  0  0  0  0  0  0  0  0  0  0
   18.8284   18.4704   22.8097 H   0  0  0  0  0  0  0  0  0  0  0  0
   19.8522   20.1239   23.8070 C   0  0  0  0  0  0  0  0  0  0  0  0
   20.8254   20.6277   23.7405 H   0  0  0  0  0  0  0  0  0  0  0  0
   19.1034   20.8754   23.5235 H   0  0  0  0  0  0  0  0  0  0  0  0
   19.6133   19.7157   25.2800 C   0  0  1  0  0  0  0  0  0  0  0  0
   19.6966   20.6232   25.8860 H   0  0  0  0  0  0  0  0  0  0  0  0
   18.2040   19.1383   25.4995 C   0  0  0  0  0  0  0  0  0  0  0  0
   17.4376   19.8255   25.1203 H   0  0  0  0  0  0  0  0  0  0  0  0
   18.0143   18.9865   26.5691 H   0  0  0  0  0  0  0  0  0  0  0  0
   18.0785   18.1718   24.9971 H   0  0  0  0  0  0  0  0  0  0  0  0
   20.6676   18.7739   25.7935 N   0  3  0  0  0  0  0  0  0  0  0  0
   21.6065   19.1695   25.6917 H   0  0  0  0  0  0  0  0  0  0  0  0
   20.5304   18.5641   26.7863 H   0  0  0  0  0  0  0  0  0  0  0  0
   20.6509   17.8853   25.2872 H   0  0  0  0  0  0  0  0  0  0  0  0
  1  2  1  0  0  0  0
  1  3  1  0  0  0  0
  1  4  1  0  0  0  0
  1  5  1  0  0  0  0
  5  6  1  0  0  0  0
  5  7  1  0  0  0  0
  5  8  1  0  0  0  0
  8  9  1  0  0  0  0
  8 10  1  0  0  0  0
  8 11  1  0  0  0  0
 11 12  1  0  0  0  0
 11 13  1  0  0  0  0
 11 14  1  0  0  0  0
 14 15  1  0  0  0  0
 14 16  1  0  0  0  0
 14 17  1  0  0  0  0
 17 18  1  0  0  0  0
 17 19  1  0  0  0  0
 19 20  1  0  0  0  0
 19 21  1  0  0  0  0
 19 22  1  0  0  0  0
 17 23  1  0  0  0  0
 23 24  1  0  0  0  0
 23 25  1  0  0  0  0
 23 26  1  0  0  0  0
M  END
> <VM2 Rank>
3

> <Conf_Id>
394

> <Probability>
7.20

> <Sum Probability>
31.94

> <Delta G>
0.513

> <G>
24.223

> <E>
-8.474

> <-TS>
32.697

> <U+W>
-29.936

> <U>
24.060

> <W>
-53.996

> <W(PB)>
-56.328

> <W(SA)>
2.332

> <Valence>
3.249

> <Coulomb>
19.781

> <VdW>
1.030

> <VdW6>
-7.421

> <VdW12>
8.451

> <Bond>
0.207

> <Angle>
1.205

> <Pdih>
1.837

> <Idih>
0.000

> <Tether>
0.000

$$$$
VeraChem MOL file


 26 25  0  0  0  0  0  0  0  0999 V2000     
   21.0477   19.5376   19.5908 C   0  0  0  0  0  0  0  0  0  0  0  0
   21.7404   19.8917   20.3642 H   0  0  0  0  0  0  0  0  0  0  0  0
   21.6436   19.2917   18.7023 H   0  0  0  0  0  0  0  0  0  0  0  0
   20.3755   20.3640   19.3258 H   0  0  0  0  0  0  0  0  0  0  0  0
   20.2495   18.3022   20.0654 C   0  0  0  0  0  0  0  0  0  0  0  0
   20.9447   17.5010   20.3527 H   0  0  0  0  0  0  0  0  0  0  0  0
   19.6643   17.9129   19.2205 H   0  0  0  0  0  0  0  0  0  0  0  0
   19.2863   18.6054   21.2384 C   0  0  0  0  0  0  0  0  0  0  0  0
   18.5786   19.3903   20.9376 H   0  0  0  0  0  0  0  0  0  0  0  0
   18.6854   17.7072   21.4372 H   0  0  0  0  0  0  0  0  0  0  0  0
   20.0118   19.0260   22.5390 C   0  0  0  0  0  0  0  0  0  0  0  0
   20.5566   19.9652   22.3752 H   0  0  0  0  0  0  0  0  0  0  0  0
   20.7576   18.2626   22.7975 H   0  0  0  0  0  0  0  0  0  0  0  0
   19.0191   19.2153   23.7118 C   0  0  0  0  0  0  0  0  0  0  0  0
   18.2492   19.9385   23.4111 H   0  0  0  0  0  0  0  0  0  0  0  0
   18.4988   18.2698   23.9151 H   0  0  0  0  0  0  0  0  0  0  0  0
   19.7000   19.7209   25.0022 C   0  0  1  0  0  0  0  0  0  0  0  0
   20.2299   20.6496   24.7689 H   0  0  0  0  0  0  0  0  0  0  0  0
   18.6459   20.0246   26.0789 C   0  0  0  0  0  0  0  0  0  0  0  0
   19.1199   20.4193   26.9860 H   0  0  0  0  0  0  0  0  0  0  0  0
   18.0850   19.1218   26.3514 H   0  0  0  0  0  0  0  0  0  0  0  0
   17.9307   20.7767   25.7233 H   0  0  0  0  0  0  0  0  0  0  0  0
   20.7278   18.7560   25.5275 N   0  3  0  0  0  0  0  0  0  0  0  0
   20.3057   17.8551   25.7676 H   0  0  0  0  0  0  0  0  0  0  0  0
   21.4619   18.5786   24.8368 H   0  0  0  0  0  0  0  0  0  0  0  0
   21.1822   19.1161   26.3714 H   0  0  0  0  0  0  0  0  0  0  0  0
  1  2  1  0  0  0  0
  1  3  1  0  0  0  0
  1  4  1  0  0  0  0
  1  5  1  0  0  0  0
  5  6  1  0  0  0  0
  5  7  1  0  0  0  0
  5  8  1  0  0  0  0
  8  9  1  0  0  0  0
  8 10  1  0  0  0  0
  8 11  1  0  0  0  0
 11 12  1  0  0  0  0
 11 13  1  0  0  0  0
 11 14  1  0  0  0  0
 14 15  1  0  0  0  0
 14 16  1  0  0  0  0
 14 17  1  0  0  0  0
 17 18  1  0  0  0  0
 17 19  1  0  0  0  0
 19 20  1  0  0  0  0
 19 21  1  0  0  0  0
 19 22  1  0  0  0  0
 17 23  1  0  0  0  0
 23 24  1  0  0  0  0
 23 25  1  0  0  0  0
 23 26  1  0  0  0  0
M  END
> <VM2 Rank>
4

> <Conf_Id>
1098

> <Probability>
6.29

> <Sum Probability>
38.23

> <Delta G>
0.594

> <G>
24.304

> <E>
-8.361

> <-TS>
32.665

> <U+W>
-29.822

> <U>
24.148

> <W>
-53.971

> <W(PB)>
-56.282

> <W(SA)>
2.311

> <Valence>
3.242

> <Coulomb>
19.863

> <VdW>
1.043

> <VdW6>
-7.422

> <VdW12>
8.465

> <Bond>
0.206

> <Angle>
1.112

> <Pdih>
1.924

> <Idih>
0.000

> <Tether>
0.000

$$$$
VeraChem MOL file


 26 25  0  0  0  0  0  0  0  0999 V2000     
   21.0697   18.0176   19.8285 C   0  0  0  0  0  0  0  0  0  0  0  0
   21.7714   17.9119   20.6650 H   0  0  0  0  0  0  0  0  0  0  0  0
   20.4115   17.1391   19.8176 H   0  0  0  0  0  0  0  0  0  0  0  0
   21.6580   18.0076   18.9018 H   0  0  0  0  0  0  0  0  0  0  0  0
   20.2511   19.3243   19.9349 C   0  0  0  0  0  0  0  0  0  0  0  0
   19.6583   19.4460   19.0175 H   0  0  0  0  0  0  0  0  0  0  0  0
   20.9328   20.1852   19.9766 H   0  0  0  0  0  0  0  0  0  0  0  0
   19.2944   19.3545   21.1513 C   0  0  0  0  0  0  0  0  0  0  0  0
   18.6765   20.2607   21.0853 H   0  0  0  0  0  0  0  0  0  0  0  0
   18.6017   18.5035   21.0943 H   0  0  0  0  0  0  0  0  0  0  0  0
   20.0282   19.3401   22.5138 C   0  0  0  0  0  0  0  0  0  0  0  0
   20.7543   20.1641   22.5472 H   0  0  0  0  0  0  0  0  0  0  0  0
   20.5965   18.4070   22.6136 H   0  0  0  0  0  0  0  0  0  0  0  0
   19.0395   19.4755   23.6975 C   0  0  0  0  0  0  0  0  0  0  0  0
   18.4433   20.3874   23.5597 H   0  0  0  0  0  0  0  0  0  0  0  0
   18.3330   18.6348   23.6892 H   0  0  0  0  0  0  0  0  0  0  0  0
   19.7463   19.5467   25.0687 C   0  0  1  0  0  0  0  0  0  0  0  0
   20.4616   20.3746   25.0430 H   0  0  0  0  0  0  0  0  0  0  0  0
   18.7245   19.8265   26.1825 C   0  0  0  0  0  0  0  0  0  0  0  0
   18.1919   20.7674   25.9957 H   0  0  0  0  0  0  0  0  0  0  0  0
   19.2245   19.9150   27.1549 H   0  0  0  0  0  0  0  0  0  0  0  0
   17.9821   19.0216   26.2517 H   0  0  0  0  0  0  0  0  0  0  0  0
   20.5344   18.3028   25.3768 N   0  3  0  0  0  0  0  0  0  0  0  0
   21.0104   18.3758   26.2804 H   0  0  0  0  0  0  0  0  0  0  0  0
   19.9300   17.4778   25.4148 H   0  0  0  0  0  0  0  0  0  0  0  0
   21.2508   18.1283   24.6671 H   0  0  0  0  0  0  0  0  0  0  0  0
  1  2  1  0  0  0  0
  1  3  1  0  0  0  0
  1  4  1  0  0  0  0
  1  5  1  0  0  0  0
  5  6  1  0  0  0  0
  5  7  1  0  0  0  0
  5  8  1  0  0  0  0
  8  9  1  0  0  0  0
  8 10  1  0  0  0  0
  8 11  1  0  0  0  0
 11 12  1  0  0  0  0
 11 13  1  0  0  0  0
 11 14  1  0  0  0  0
 14 15  1  0  0  0  0
 14 16  1  0  0  0  0
 14 17  1  0  0  0  0
 17 18  1  0  0  0  0
 17 19  1  0  0  0  0
 19 20  1  0  0  0  0
 19 21  1  0  0  0  0
 19 22  1  0  0  0  0
 17 23  1  0  0  0  0
 23 24  1  0  0  0  0
 23 25  1  0  0  0  0
 23 26  1  0  0  0  0
M  END
> <VM2 Rank>
5

> <Conf_Id>
512

> <Probability>
6.04

> <Sum Probability>
44.28

> <Delta G>
0.618

> <G>
24.328

> <E>
-8.331

> <-TS>
32.658

> <U+W>
-29.792

> <U>
24.259

> <W>
-54.052

> <W(PB)>
-56.355

> <W(SA)>
2.304

> <Valence>
3.240

> <Coulomb>
19.971

> <VdW>
1.049

> <VdW6>
-7.432

> <VdW12>
8.481

> <Bond>
0.208

> <Angle>
1.110

> <Pdih>
1.922

> <Idih>
0.000

> <Tether>
0.000

$$$$
VeraChem MOL file


 26 25  0  0  0  0  0  0  0  0999 V2000     
   19.9268   18.4374   19.0849 C   0  0  0  0  0  0  0  0  0  0  0  0
   20.9096   18.6604   18.6495 H   0  0  0  0  0  0  0  0  0  0  0  0
   19.5853   17.4792   18.6722 H   0  0  0  0  0  0  0  0  0  0  0  0
   19.2237   19.2148   18.7584 H   0  0  0  0  0  0  0  0  0  0  0  0
   20.0038   18.3710   20.6250 C   0  0  0  0  0  0  0  0  0  0  0  0
   20.6909   17.5660   20.9208 H   0  0  0  0  0  0  0  0  0  0  0  0
   19.0139   18.1064   21.0198 H   0  0  0  0  0  0  0  0  0  0  0  0
   20.4794   19.7129   21.2303 C   0  0  0  0  0  0  0  0  0  0  0  0
   21.4335   19.9964   20.7648 H   0  0  0  0  0  0  0  0  0  0  0  0
   19.7647   20.5078   20.9760 H   0  0  0  0  0  0  0  0  0  0  0  0
   20.6774   19.6635   22.7652 C   0  0  0  0  0  0  0  0  0  0  0  0
   21.1155   20.6175   23.0901 H   0  0  0  0  0  0  0  0  0  0  0  0
   21.4129   18.8851   23.0087 H   0  0  0  0  0  0  0  0  0  0  0  0
   19.3622   19.4203   23.5489 C   0  0  0  0  0  0  0  0  0  0  0  0
   18.6078   20.1427   23.2100 H   0  0  0  0  0  0  0  0  0  0  0  0
   18.9664   18.4218   23.3241 H   0  0  0  0  0  0  0  0  0  0  0  0
   19.5397   19.5652   25.0758 C   0  0  1  0  0  0  0  0  0  0  0  0
   19.9496   20.5591   25.2804 H   0  0  0  0  0  0  0  0  0  0  0  0
   18.1814   19.4481   25.7857 C   0  0  0  0  0  0  0  0  0  0  0  0
   17.4847   20.2143   25.4233 H   0  0  0  0  0  0  0  0  0  0  0  0
   18.2955   19.5876   26.8677 H   0  0  0  0  0  0  0  0  0  0  0  0
   17.7268   18.4644   25.6138 H   0  0  0  0  0  0  0  0  0  0  0  0
   20.5173   18.5696   25.6382 N   0  3  0  0  0  0  0  0  0  0  0  0
   20.2019   17.6084   25.4837 H   0  0  0  0  0  0  0  0  0  0  0  0
   21.4395   18.6653   25.2047 H   0  0  0  0  0  0  0  0  0  0  0  0
   20.6392   18.6938   26.6472 H   0  0  0  0  0  0  0  0  0  0  0  0
  1  2  1  0  0  0  0
  1  3  1  0  0  0  0
  1  4  1  0  0  0  0
  1  5  1  0  0  0  0
  5  6  1  0  0  0  0
  5  7  1  0  0  0  0
  5  8  1  0  0  0  0
  8  9  1  0  0  0  0
  8 10  1  0  0  0  0
  8 11  1  0  0  0  0
 11 12  1  0  0  0  0
 11 13  1  0  0  0  0
 11 14  1  0  0  0  0
 14 15  1  0  0  0  0
 14 16  1  0  0  0  0
 14 17  1  0  0  0  0
 17 18  1  0  0  0  0
 17 19  1  0  0  0  0
 19 20  1  0  0  0  0
 19 21  1  0  0  0  0
 19 22  1  0  0  0  0
 17 23  1  0  0  0  0
 23 24  1  0  0  0  0
 23 25  1  0  0  0  0
 23 26  1  0  0  0  0
M  END
> <VM2 Rank>
6

> <Conf_Id>
976

> <Probability>
5.30

> <Sum Probability>
49.57

> <Delta G>
0.697

> <G>
24.407

> <E>
-8.262

> <-TS>
32.669

> <U+W>
-29.724

> <U>
24.276

> <W>
-54.000

> <W(PB)>
-56.312

> <W(SA)>
2.312

> <Valence>
3.269

> <Coulomb>
20.007

> <VdW>
1.000

> <VdW6>
-7.483

> <VdW12>
8.483

> <Bond>
0.211

> <Angle>
1.103

> <Pdih>
1.955

> <Idih>
0.000

> <Tether>
0.000

$$$$
VeraChem MOL file


 26 25  0  0  0  0  0  0  0  0999 V2000     
   20.8973   19.5642   19.3398 C   0  0  0  0  0  0  0  0  0  0  0  0
   21.3065   19.0767   18.4454 H   0  0  0  0  0  0  0  0  0  0  0  0
   20.0620   20.2025   19.0234 H   0  0  0  0  0  0  0  0  0  0  0  0
   21.6802   20.2089   19.7601 H   0  0  0  0  0  0  0  0  0  0  0  0
   20.4326   18.5122   20.3692 C   0  0  0  0  0  0  0  0  0  0  0  0
   21.2810   17.8686   20.6409 H   0  0  0  0  0  0  0  0  0  0  0  0
   19.6758   17.8617   19.9088 H   0  0  0  0  0  0  0  0  0  0  0  0
   19.8508   19.1725   21.6387 C   0  0  0  0  0  0  0  0  0  0  0  0
   20.6118   19.8276   22.0831 H   0  0  0  0  0  0  0  0  0  0  0  0
   19.0021   19.8128   21.3612 H   0  0  0  0  0  0  0  0  0  0  0  0
   19.3867   18.1186   22.6726 C   0  0  0  0  0  0  0  0  0  0  0  0
   20.2365   17.4902   22.9709 H   0  0  0  0  0  0  0  0  0  0  0  0
   18.6630   17.4429   22.1961 H   0  0  0  0  0  0  0  0  0  0  0  0
   18.7225   18.7436   23.9263 C   0  0  0  0  0  0  0  0  0  0  0  0
   17.8184   19.2835   23.6145 H   0  0  0  0  0  0  0  0  0  0  0  0
   18.3839   17.9379   24.5912 H   0  0  0  0  0  0  0  0  0  0  0  0
   19.6369   19.7072   24.7157 C   0  0  1  0  0  0  0  0  0  0  0  0
   19.9486   20.5137   24.0454 H   0  0  0  0  0  0  0  0  0  0  0  0
   18.8679   20.3322   25.8905 C   0  0  0  0  0  0  0  0  0  0  0  0
   18.5348   19.5649   26.6005 H   0  0  0  0  0  0  0  0  0  0  0  0
   17.9832   20.8738   25.5329 H   0  0  0  0  0  0  0  0  0  0  0  0
   19.4996   21.0474   26.4316 H   0  0  0  0  0  0  0  0  0  0  0  0
   20.8933   19.0375   25.2011 N   0  3  0  0  0  0  0  0  0  0  0  0
   21.4331   18.6510   24.4221 H   0  0  0  0  0  0  0  0  0  0  0  0
   21.4999   19.6947   25.6996 H   0  0  0  0  0  0  0  0  0  0  0  0
   20.6822   18.2683   25.8422 H   0  0  0  0  0  0  0  0  0  0  0  0
  1  2  1  0  0  0  0
  1  3  1  0  0  0  0
  1  4  1  0  0  0  0
  1  5  1  0  0  0  0
  5  6  1  0  0  0  0
  5  7  1  0  0  0  0
  5  8  1  0  0  0  0
  8  9  1  0  0  0  0
  8 10  1  0  0  0  0
  8 11  1  0  0  0  0
 11 12  1  0  0  0  0
 11 13  1  0  0  0  0
 11 14  1  0  0  0  0
 14 15  1  0  0  0  0
 14 16  1  0  0  0  0
 14 17  1  0  0  0  0
 17 18  1  0  0  0  0
 17 19  1  0  0  0  0
 19 20  1  0  0  0  0
 19 21  1  0  0  0  0
 19 22  1  0  0  0  0
 17 23  1  0  0  0  0
 23 24  1  0  0  0  0
 23 25  1  0  0  0  0
 23 26  1  0  0  0  0
M  END
> <VM2 Rank>
7

> <Conf_Id>
470

> <Probability>
5.28

> <Sum Probability>
54.85

> <Delta G>
0.698

> <G>
24.408

> <E>
-8.337

> <-TS>
32.745

> <U+W>
-29.799

> <U>
24.149

> <W>
-53.948

> <W(PB)>
-56.255

> <W(SA)>
2.307

> <Valence>
3.038

> <Coulomb>
20.324

> <VdW>
0.787

> <VdW6>
-7.686

> <VdW12>
8.473

> <Bond>
0.201

> <Angle>
1.090

> <Pdih>
1.748

> <Idih>
0.000

> <Tether>
0.000

$$$$
VeraChem MOL file


 26 25  0  0  0  0  0  0  0  0999 V2000     
   19.8815   18.9331   18.9778 C   0  0  0  0  0  0  0  0  0  0  0  0
   20.8781   18.6656   18.6031 H   0  0  0  0  0  0  0  0  0  0  0  0
   19.2375   18.0474   18.8992 H   0  0  0  0  0  0  0  0  0  0  0  0
   19.4706   19.7081   18.3177 H   0  0  0  0  0  0  0  0  0  0  0  0
   19.9528   19.4393   20.4341 C   0  0  0  0  0  0  0  0  0  0  0  0
   18.9459   19.7352   20.7566 H   0  0  0  0  0  0  0  0  0  0  0  0
   20.5793   20.3412   20.4755 H   0  0  0  0  0  0  0  0  0  0  0  0
   20.5251   18.3610   21.3846 C   0  0  0  0  0  0  0  0  0  0  0  0
   19.8672   17.4809   21.3858 H   0  0  0  0  0  0  0  0  0  0  0  0
   21.4936   18.0203   20.9930 H   0  0  0  0  0  0  0  0  0  0  0  0
   20.7323   18.8571   22.8370 C   0  0  0  0  0  0  0  0  0  0  0  0
   21.3920   19.7358   22.8342 H   0  0  0  0  0  0  0  0  0  0  0  0
   21.2651   18.0725   23.3900 H   0  0  0  0  0  0  0  0  0  0  0  0
   19.4090   19.1993   23.5692 C   0  0  0  0  0  0  0  0  0  0  0  0
   18.8912   20.0002   23.0274 H   0  0  0  0  0  0  0  0  0  0  0  0
   18.7411   18.3278   23.5567 H   0  0  0  0  0  0  0  0  0  0  0  0
   19.6294   19.6630   25.0259 C   0  0  1  0  0  0  0  0  0  0  0  0
   20.3252   20.5076   25.0152 H   0  0  0  0  0  0  0  0  0  0  0  0
   18.3035   20.1384   25.6415 C   0  0  0  0  0  0  0  0  0  0  0  0
   17.8752   20.9624   25.0572 H   0  0  0  0  0  0  0  0  0  0  0  0
   18.4587   20.5024   26.6646 H   0  0  0  0  0  0  0  0  0  0  0  0
   17.5675   19.3254   25.6758 H   0  0  0  0  0  0  0  0  0  0  0  0
   20.2546   18.5968   25.8839 N   0  3  0  0  0  0  0  0  0  0  0  0
   21.1621   18.3023   25.5138 H   0  0  0  0  0  0  0  0  0  0  0  0
   20.4079   18.9287   26.8404 H   0  0  0  0  0  0  0  0  0  0  0  0
   19.6597   17.7660   25.9397 H   0  0  0  0  0  0  0  0  0  0  0  0
  1  2  1  0  0  0  0
  1  3  1  0  0  0  0
  1  4  1  0  0  0  0
  1  5  1  0  0  0  0
  5  6  1  0  0  0  0
  5  7  1  0  0  0  0
  5  8  1  0  0  0  0
  8  9  1  0  0  0  0
  8 10  1  0  0  0  0
  8 11  1  0  0  0  0
 11 12  1  0  0  0  0
 11 13  1  0  0  0  0
 11 14  1  0  0  0  0
 14 15  1  0  0  0  0
 14 16  1  0  0  0  0
 14 17  1  0  0  0  0
 17 18  1  0  0  0  0
 17 19  1  0  0  0  0
 19 20  1  0  0  0  0
 19 21  1  0  0  0  0
 19 22  1  0  0  0  0
 17 23  1  0  0  0  0
 23 24  1  0  0  0  0
 23 25  1  0  0  0  0
 23 26  1  0  0  0  0
M  END
> <VM2 Rank>
8

> <Conf_Id>
610

> <Probability>
4.39

> <Sum Probability>
59.25

> <Delta G>
0.808

> <G>
24.518

> <E>
-8.104

> <-TS>
32.622

> <U+W>
-29.566

> <U>
24.282

> <W>
-53.847

> <W(PB)>
-56.207

> <W(SA)>
2.360

> <Valence>
3.311

> <Coulomb>
19.887

> <VdW>
1.083

> <VdW6>
-7.444

> <VdW12>
8.527

> <Bond>
0.218

> <Angle>
1.167

> <Pdih>
1.926

> <Idih>
0.000

> <Tether>
0.000

$$$$
VeraChem MOL file


 26 25  0  0  0  0  0  0  0  0999 V2000     
   20.9636   19.5127   19.3553 C   0  0  0  0  0  0  0  0  0  0  0  0
   21.3655   20.4758   19.6961 H   0  0  0  0  0  0  0  0  0  0  0  0
   21.7723   18.7714   19.3948 H   0  0  0  0  0  0  0  0  0  0  0  0
   20.6614   19.6261   18.3061 H   0  0  0  0  0  0  0  0  0  0  0  0
   19.7653   19.0732   20.2230 C   0  0  0  0  0  0  0  0  0  0  0  0
   19.3639   18.1258   19.8367 H   0  0  0  0  0  0  0  0  0  0  0  0
   18.9607   19.8169   20.1370 H   0  0  0  0  0  0  0  0  0  0  0  0
   20.1639   18.9055   21.7059 C   0  0  0  0  0  0  0  0  0  0  0  0
   20.9670   18.1599   21.7867 H   0  0  0  0  0  0  0  0  0  0  0  0
   20.5715   19.8551   22.0772 H   0  0  0  0  0  0  0  0  0  0  0  0
   18.9622   18.4683   22.5775 C   0  0  0  0  0  0  0  0  0  0  0  0
   18.5326   17.5469   22.1607 H   0  0  0  0  0  0  0  0  0  0  0  0
   18.1669   19.2233   22.5215 H   0  0  0  0  0  0  0  0  0  0  0  0
   19.3438   18.2052   24.0573 C   0  0  0  0  0  0  0  0  0  0  0  0
   18.4479   17.8852   24.6056 H   0  0  0  0  0  0  0  0  0  0  0  0
   20.0396   17.3564   24.0898 H   0  0  0  0  0  0  0  0  0  0  0  0
   19.9904   19.4037   24.7916 C   0  0  1  0  0  0  0  0  0  0  0  0
   20.8838   19.7069   24.2378 H   0  0  0  0  0  0  0  0  0  0  0  0
   19.0389   20.6103   24.8790 C   0  0  0  0  0  0  0  0  0  0  0  0
   18.1005   20.3403   25.3790 H   0  0  0  0  0  0  0  0  0  0  0  0
   18.7981   20.9999   23.8830 H   0  0  0  0  0  0  0  0  0  0  0  0
   19.5027   21.4282   25.4440 H   0  0  0  0  0  0  0  0  0  0  0  0
   20.4599   19.0091   26.1643 N   0  3  0  0  0  0  0  0  0  0  0  0
   19.6793   18.7129   26.7562 H   0  0  0  0  0  0  0  0  0  0  0  0
   21.1282   18.2341   26.1265 H   0  0  0  0  0  0  0  0  0  0  0  0
   20.9244   19.7882   26.6395 H   0  0  0  0  0  0  0  0  0  0  0  0
  1  2  1  0  0  0  0
  1  3  1  0  0  0  0
  1  4  1  0  0  0  0
  1  5  1  0  0  0  0
  5  6  1  0  0  0  0
  5  7  1  0  0  0  0
  5  8  1  0  0  0  0
  8  9  1  0  0  0  0
  8 10  1  0  0  0  0
  8 11  1  0  0  0  0
 11 12  1  0  0  0  0
 11 13  1  0  0  0  0
 11 14  1  0  0  0  0
 14 15  1  0  0  0  0
 14 16  1  0  0  0  0
 14 17  1  0  0  0  0
 17 18  1  0  0  0  0
 17 19  1  0  0  0  0
 19 20  1  0  0  0  0
 19 21  1  0  0  0  0
 19 22  1  0  0  0  0
 17 23  1  0  0  0  0
 23 24  1  0  0  0  0
 23 25  1  0  0  0  0
 23 26  1  0  0  0  0
M  END
> <VM2 Rank>
9

> <Conf_Id>
232

> <Probability>
3.72

> <Sum Probability>
62.96

> <Delta G>
0.908

> <G>
24.617

> <E>
-8.225

> <-TS>
32.842

> <U+W>
-29.686

> <U>
24.335

> <W>
-54.022

> <W(PB)>
-56.337

> <W(SA)>
2.315

> <Valence>
3.530

> <Coulomb>
19.944

> <VdW>
0.861

> <VdW6>
-7.915

> <VdW12>
8.775

> <Bond>
0.213

> <Angle>
1.415

> <Pdih>
1.902

> <Idih>
0.000

> <Tether>
0.000

$$$$
VeraChem MOL file


 26 25  0  0  0  0  0  0  0  0999 V2000     
   20.8064   19.7428   19.5402 C   0  0  0  0  0  0  0  0  0  0  0  0
   21.7814   19.2445   19.6193 H   0  0  0  0  0  0  0  0  0  0  0  0
   20.6857   20.0810   18.5028 H   0  0  0  0  0  0  0  0  0  0  0  0
   20.8231   20.6354   20.1777 H   0  0  0  0  0  0  0  0  0  0  0  0
   19.6591   18.7850   19.9336 C   0  0  0  0  0  0  0  0  0  0  0  0
   19.6070   17.9727   19.1952 H   0  0  0  0  0  0  0  0  0  0  0  0
   18.6984   19.3154   19.8751 H   0  0  0  0  0  0  0  0  0  0  0  0
   19.8303   18.1655   21.3417 C   0  0  0  0  0  0  0  0  0  0  0  0
   19.0358   17.4220   21.4945 H   0  0  0  0  0  0  0  0  0  0  0  0
   20.7807   17.6161   21.3868 H   0  0  0  0  0  0  0  0  0  0  0  0
   19.7736   19.2075   22.4848 C   0  0  0  0  0  0  0  0  0  0  0  0
   18.8478   19.7899   22.3910 H   0  0  0  0  0  0  0  0  0  0  0  0
   20.6092   19.9132   22.3885 H   0  0  0  0  0  0  0  0  0  0  0  0
   19.8384   18.5328   23.8772 C   0  0  0  0  0  0  0  0  0  0  0  0
   18.9670   17.8785   24.0130 H   0  0  0  0  0  0  0  0  0  0  0  0
   20.7232   17.8834   23.9094 H   0  0  0  0  0  0  0  0  0  0  0  0
   19.9242   19.5345   25.0515 C   0  0  1  0  0  0  0  0  0  0  0  0
   20.7748   20.1996   24.8736 H   0  0  0  0  0  0  0  0  0  0  0  0
   18.6525   20.3930   25.1765 C   0  0  0  0  0  0  0  0  0  0  0  0
   18.5129   21.0300   24.2955 H   0  0  0  0  0  0  0  0  0  0  0  0
   18.7181   21.0559   26.0480 H   0  0  0  0  0  0  0  0  0  0  0  0
   17.7600   19.7657   25.2929 H   0  0  0  0  0  0  0  0  0  0  0  0
   20.2035   18.8269   26.3485 N   0  3  0  0  0  0  0  0  0  0  0  0
   21.0703   18.2834   26.3029 H   0  0  0  0  0  0  0  0  0  0  0  0
   20.3009   19.4896   27.1229 H   0  0  0  0  0  0  0  0  0  0  0  0
   19.4482   18.1809   26.5929 H   0  0  0  0  0  0  0  0  0  0  0  0
  1  2  1  0  0  0  0
  1  3  1  0  0  0  0
  1  4  1  0  0  0  0
  1  5  1  0  0  0  0
  5  6  1  0  0  0  0
  5  7  1  0  0  0  0
  5  8  1  0  0  0  0
  8  9  1  0  0  0  0
  8 10  1  0  0  0  0
  8 11  1  0  0  0  0
 11 12  1  0  0  0  0
 11 13  1  0  0  0  0
 11 14  1  0  0  0  0
 14 15  1  0  0  0  0
 14 16  1  0  0  0  0
 14 17  1  0  0  0  0
 17 18  1  0  0  0  0
 17 19  1  0  0  0  0
 19 20  1  0  0  0  0
 19 21  1  0  0  0  0
 19 22  1  0  0  0  0
 17 23  1  0  0  0  0
 23 24  1  0  0  0  0
 23 25  1  0  0  0  0
 23 26  1  0  0  0  0
M  END
> <VM2 Rank>
10

> <Conf_Id>
764

> <Probability>
2.97

> <Sum Probability>
65.94

> <Delta G>
1.041

> <G>
24.751

> <E>
-7.930

> <-TS>
32.680

> <U+W>
-29.392

> <U>
24.442

> <W>
-53.834

> <W(PB)>
-56.128

> <W(SA)>
2.295

> <Valence>
3.781

> <Coulomb>
19.492

> <VdW>
1.170

> <VdW6>
-7.583

> <VdW12>
8.752

> <Bond>
0.218

> <Angle>
1.390

> <Pdih>
2.173

> <Idih>
0.000

> <Tether>
0.000

$$$$
VeraChem MOL file


 26 25  0  0  0  0  0  0  0  0999 V2000     
   19.3590   19.5424   19.4493 C   0  0  0  0  0  0  0  0  0  0  0  0
   19.5230   19.9147   18.4297 H   0  0  0  0  0  0  0  0  0  0  0  0
   18.5544   18.7968   19.4088 H   0  0  0  0  0  0  0  0  0  0  0  0
   19.0147   20.3882   20.0571 H   0  0  0  0  0  0  0  0  0  0  0  0
   20.6590   18.9272   20.0156 C   0  0  0  0  0  0  0  0  0  0  0  0
   21.4380   19.7001   20.0759 H   0  0  0  0  0  0  0  0  0  0  0  0
   21.0298   18.1717   19.3089 H   0  0  0  0  0  0  0  0  0  0  0  0
   20.4732   18.2619   21.4008 C   0  0  0  0  0  0  0  0  0  0  0  0
   19.7078   17.4766   21.3308 H   0  0  0  0  0  0  0  0  0  0  0  0
   21.4104   17.7565   21.6720 H   0  0  0  0  0  0  0  0  0  0  0  0
   20.0943   19.2618   22.5198 C   0  0  0  0  0  0  0  0  0  0  0  0
   19.1275   19.7227   22.2833 H   0  0  0  0  0  0  0  0  0  0  0  0
   20.8369   20.0709   22.5551 H   0  0  0  0  0  0  0  0  0  0  0  0
   20.0174   18.5705   23.9035 C   0  0  0  0  0  0  0  0  0  0  0  0
   19.2326   17.8025   23.8903 H   0  0  0  0  0  0  0  0  0  0  0  0
   20.9641   18.0447   24.0850 H   0  0  0  0  0  0  0  0  0  0  0  0
   19.7697   19.5474   25.0758 C   0  0  1  0  0  0  0  0  0  0  0  0
   20.5383   20.3258   25.0418 H   0  0  0  0  0  0  0  0  0  0  0  0
   18.3888   20.2222   24.9882 C   0  0  0  0  0  0  0  0  0  0  0  0
   18.2176   20.8660   25.8598 H   0  0  0  0  0  0  0  0  0  0  0  0
   17.5844   19.4770   24.9528 H   0  0  0  0  0  0  0  0  0  0  0  0
   18.3100   20.8563   24.0977 H   0  0  0  0  0  0  0  0  0  0  0  0
   19.9266   18.8546   26.4010 N   0  3  0  0  0  0  0  0  0  0  0  0
   20.8555   18.4352   26.5000 H   0  0  0  0  0  0  0  0  0  0  0  0
   19.8029   19.5065   27.1809 H   0  0  0  0  0  0  0  0  0  0  0  0
   19.2377   18.1066   26.5164 H   0  0  0  0  0  0  0  0  0  0  0  0
  1  2  1  0  0  0  0
  1  3  1  0  0  0  0
  1  4  1  0  0  0  0
  1  5  1  0  0  0  0
  5  6  1  0  0  0  0
  5  7  1  0  0  0  0
  5  8  1  0  0  0  0
  8  9  1  0  0  0  0
  8 10  1  0  0  0  0
  8 11  1  0  0  0  0
 11 12  1  0  0  0  0
 11 13  1  0  0  0  0
 11 14  1  0  0  0  0
 14 15  1  0  0  0  0
 14 16  1  0  0  0  0
 14 17  1  0  0  0  0
 17 18  1  0  0  0  0
 17 19  1  0  0  0  0
 19 20  1  0  0  0  0
 19 21  1  0  0  0  0
 19 22  1  0  0  0  0
 17 23  1  0  0  0  0
 23 24  1  0  0  0  0
 23 25  1  0  0  0  0
 23 26  1  0  0  0  0
M  END
> <VM2 Rank>
11

> <Conf_Id>
545

> <Probability>
2.52

> <Sum Probability>
68.45

> <Delta G>
1.140

> <G>
24.850

> <E>
-7.824

> <-TS>
32.674

> <U+W>
-29.286

> <U>
24.454

> <W>
-53.740

> <W(PB)>
-56.070

> <W(SA)>
2.330

> <Valence>
3.783

> <Coulomb>
19.491

> <VdW>
1.181

> <VdW6>
-7.595

> <VdW12>
8.776

> <Bond>
0.221

> <Angle>
1.391

> <Pdih>
2.171

> <Idih>
0.000

> <Tether>
0.000

$$$$
VeraChem MOL file


 26 25  0  0  0  0  0  0  0  0999 V2000     
   20.5936   17.7670   19.9359 C   0  0  0  0  0  0  0  0  0  0  0  0
   20.3893   17.2484   18.9903 H   0  0  0  0  0  0  0  0  0  0  0  0
   21.6696   17.9805   19.9760 H   0  0  0  0  0  0  0  0  0  0  0  0
   20.3493   17.0743   20.7507 H   0  0  0  0  0  0  0  0  0  0  0  0
   19.7649   19.0683   20.0287 C   0  0  0  0  0  0  0  0  0  0  0  0
   18.6931   18.8255   20.0190 H   0  0  0  0  0  0  0  0  0  0  0  0
   19.9514   19.6715   19.1292 H   0  0  0  0  0  0  0  0  0  0  0  0
   20.0971   19.9223   21.2762 C   0  0  0  0  0  0  0  0  0  0  0  0
   21.1647   20.1820   21.2687 H   0  0  0  0  0  0  0  0  0  0  0  0
   19.5477   20.8712   21.2051 H   0  0  0  0  0  0  0  0  0  0  0  0
   19.7374   19.2288   22.6122 C   0  0  0  0  0  0  0  0  0  0  0  0
   20.3345   18.3153   22.7236 H   0  0  0  0  0  0  0  0  0  0  0  0
   18.6834   18.9233   22.5835 H   0  0  0  0  0  0  0  0  0  0  0  0
   19.9861   20.1640   23.8244 C   0  0  0  0  0  0  0  0  0  0  0  0
   21.0296   20.5050   23.8082 H   0  0  0  0  0  0  0  0  0  0  0  0
   19.3716   21.0677   23.7178 H   0  0  0  0  0  0  0  0  0  0  0  0
   19.7005   19.5301   25.2066 C   0  0  1  0  0  0  0  0  0  0  0  0
   19.9399   20.2826   25.9644 H   0  0  0  0  0  0  0  0  0  0  0  0
   18.2178   19.1552   25.3761 C   0  0  0  0  0  0  0  0  0  0  0  0
   17.9284   18.3330   24.7110 H   0  0  0  0  0  0  0  0  0  0  0  0
   17.5712   20.0152   25.1621 H   0  0  0  0  0  0  0  0  0  0  0  0
   18.0182   18.8378   26.4069 H   0  0  0  0  0  0  0  0  0  0  0  0
   20.5906   18.3522   25.4938 N   0  3  0  0  0  0  0  0  0  0  0  0
   20.4209   17.5886   24.8347 H   0  0  0  0  0  0  0  0  0  0  0  0
   21.5807   18.6043   25.4262 H   0  0  0  0  0  0  0  0  0  0  0  0
   20.4324   17.9850   26.4365 H   0  0  0  0  0  0  0  0  0  0  0  0
  1  2  1  0  0  0  0
  1  3  1  0  0  0  0
  1  4  1  0  0  0  0
  1  5  1  0  0  0  0
  5  6  1  0  0  0  0
  5  7  1  0  0  0  0
  5  8  1  0  0  0  0
  8  9  1  0  0  0  0
  8 10  1  0  0  0  0
  8 11  1  0  0  0  0
 11 12  1  0  0  0  0
 11 13  1  0  0  0  0
 11 14  1  0  0  0  0
 14 15  1  0  0  0  0
 14 16  1  0  0  0  0
 14 17  1  0  0  0  0
 17 18  1  0  0  0  0
 17 19  1  0  0  0  0
 19 20  1  0  0  0  0
 19 21  1  0  0  0  0
 19 22  1  0  0  0  0
 17 23  1  0  0  0  0
 23 24  1  0  0  0  0
 23 25  1  0  0  0  0
 23 26  1  0  0  0  0
M  END
> <VM2 Rank>
12

> <Conf_Id>
864

> <Probability>
2.41

> <Sum Probability>
70.86

> <Delta G>
1.167

> <G>
24.877

> <E>
-7.930

> <-TS>
32.807

> <U+W>
-29.392

> <U>
24.790

> <W>
-54.182

> <W(PB)>
-56.462

> <W(SA)>
2.279

> <Valence>
3.751

> <Coulomb>
19.894

> <VdW>
1.145

> <VdW6>
-8.074

> <VdW12>
9.219

> <Bond>
0.243

> <Angle>
1.440

> <Pdih>
2.068

> <Idih>
0.000

> <Tether>
0.000

$$$$
VeraChem MOL file


 26 25  0  0  0  0  0  0  0  0999 V2000     
   19.3885   18.1239   19.7279 C   0  0  0  0  0  0  0  0  0  0  0  0
   19.5634   17.4956   18.8450 H   0  0  0  0  0  0  0  0  0  0  0  0
   18.9715   17.4805   20.5124 H   0  0  0  0  0  0  0  0  0  0  0  0
   18.6339   18.8752   19.4610 H   0  0  0  0  0  0  0  0  0  0  0  0
   20.7043   18.7951   20.1830 C   0  0  0  0  0  0  0  0  0  0  0  0
   21.1455   19.3250   19.3272 H   0  0  0  0  0  0  0  0  0  0  0  0
   21.4310   18.0239   20.4745 H   0  0  0  0  0  0  0  0  0  0  0  0
   20.5134   19.8005   21.3442 C   0  0  0  0  0  0  0  0  0  0  0  0
   21.4709   20.3077   21.5262 H   0  0  0  0  0  0  0  0  0  0  0  0
   19.8030   20.5815   21.0398 H   0  0  0  0  0  0  0  0  0  0  0  0
   20.0322   19.1407   22.6589 C   0  0  0  0  0  0  0  0  0  0  0  0
   20.7187   18.3262   22.9250 H   0  0  0  0  0  0  0  0  0  0  0  0
   19.0448   18.6904   22.4997 H   0  0  0  0  0  0  0  0  0  0  0  0
   19.9548   20.1690   23.8175 C   0  0  0  0  0  0  0  0  0  0  0  0
   20.9353   20.6470   23.9421 H   0  0  0  0  0  0  0  0  0  0  0  0
   19.2597   20.9733   23.5425 H   0  0  0  0  0  0  0  0  0  0  0  0
   19.5215   19.5825   25.1821 C   0  0  1  0  0  0  0  0  0  0  0  0
   19.5398   20.4015   25.9079 H   0  0  0  0  0  0  0  0  0  0  0  0
   18.0870   19.0271   25.1448 C   0  0  0  0  0  0  0  0  0  0  0  0
   18.0125   18.1367   24.5092 H   0  0  0  0  0  0  0  0  0  0  0  0
   17.3866   19.7811   24.7646 H   0  0  0  0  0  0  0  0  0  0  0  0
   17.7583   18.7467   26.1530 H   0  0  0  0  0  0  0  0  0  0  0  0
   20.4863   18.5493   25.6957 N   0  3  0  0  0  0  0  0  0  0  0  0
   21.4363   18.9248   25.7662 H   0  0  0  0  0  0  0  0  0  0  0  0
   20.2189   18.2178   26.6268 H   0  0  0  0  0  0  0  0  0  0  0  0
   20.5219   17.7345   25.0784 H   0  0  0  0  0  0  0  0  0  0  0  0
  1  2  1  0  0  0  0
  1  3  1  0  0  0  0
  1  4  1  0  0  0  0
  1  5  1  0  0  0  0
  5  6  1  0  0  0  0
  5  7  1  0  0  0  0
  5  8  1  0  0  0  0
  8  9  1  0  0  0  0
  8 10  1  0  0  0  0
  8 11  1  0  0  0  0
 11 12  1  0  0  0  0
 11 13  1  0  0  0  0
 11 14  1  0  0  0  0
 14 15  1  0  0  0  0
 14 16  1  0  0  0  0
 14 17  1  0  0  0  0
 17 18  1  0  0  0  0
 17 19  1  0  0  0  0
 19 20  1  0  0  0  0
 19 21  1  0  0  0  0
 19 22  1  0  0  0  0
 17 23  1  0  0  0  0
 23 24  1  0  0  0  0
 23 25  1  0  0  0  0
 23 26  1  0  0  0  0
M  END
> <VM2 Rank>
13

> <Conf_Id>
173

> <Probability>
2.39

> <Sum Probability>
73.25

> <Delta G>
1.171

> <G>
24.881

> <E>
-7.928

> <-TS>
32.808

> <U+W>
-29.389

> <U>
24.690

> <W>
-54.079

> <W(PB)>
-56.373

> <W(SA)>
2.294

> <Valence>
3.755

> <Coulomb>
19.785

> <VdW>
1.150

> <VdW6>
-8.077

> <VdW12>
9.227

> <Bond>
0.244

> <Angle>
1.443

> <Pdih>
2.068

> <Idih>
0.000

> <Tether>
0.000

$$$$
VeraChem MOL file


 26 25  0  0  0  0  0  0  0  0999 V2000     
   20.2614   18.3070   19.1274 C   0  0  0  0  0  0  0  0  0  0  0  0
   21.3552   18.2153   19.1043 H   0  0  0  0  0  0  0  0  0  0  0  0
   19.8373   17.3930   18.6917 H   0  0  0  0  0  0  0  0  0  0  0  0
   19.9753   19.1502   18.4853 H   0  0  0  0  0  0  0  0  0  0  0  0
   19.7525   18.5099   20.5703 C   0  0  0  0  0  0  0  0  0  0  0  0
   20.0218   17.6304   21.1701 H   0  0  0  0  0  0  0  0  0  0  0  0
   18.6551   18.5682   20.5646 H   0  0  0  0  0  0  0  0  0  0  0  0
   20.3405   19.7911   21.2073 C   0  0  0  0  0  0  0  0  0  0  0  0
   21.4352   19.7108   21.2576 H   0  0  0  0  0  0  0  0  0  0  0  0
   20.1246   20.6471   20.5530 H   0  0  0  0  0  0  0  0  0  0  0  0
   19.7761   20.0955   22.6168 C   0  0  0  0  0  0  0  0  0  0  0  0
   18.6855   20.2046   22.5496 H   0  0  0  0  0  0  0  0  0  0  0  0
   20.1665   21.0685   22.9460 H   0  0  0  0  0  0  0  0  0  0  0  0
   20.1430   19.0208   23.6725 C   0  0  0  0  0  0  0  0  0  0  0  0
   19.6463   18.0720   23.4332 H   0  0  0  0  0  0  0  0  0  0  0  0
   21.2232   18.8316   23.6187 H   0  0  0  0  0  0  0  0  0  0  0  0
   19.7890   19.4300   25.1204 C   0  0  1  0  0  0  0  0  0  0  0  0
   20.2630   20.3939   25.3300 H   0  0  0  0  0  0  0  0  0  0  0  0
   18.2706   19.5795   25.3247 C   0  0  0  0  0  0  0  0  0  0  0  0
   17.7425   18.6525   25.0688 H   0  0  0  0  0  0  0  0  0  0  0  0
   17.8632   20.3888   24.7078 H   0  0  0  0  0  0  0  0  0  0  0  0
   18.0435   19.8228   26.3699 H   0  0  0  0  0  0  0  0  0  0  0  0
   20.3549   18.4542   26.1146 N   0  3  0  0  0  0  0  0  0  0  0  0
   21.3717   18.3716   26.0255 H   0  0  0  0  0  0  0  0  0  0  0  0
   20.1568   18.7432   27.0767 H   0  0  0  0  0  0  0  0  0  0  0  0
   19.9583   17.5191   25.9891 H   0  0  0  0  0  0  0  0  0  0  0  0
  1  2  1  0  0  0  0
  1  3  1  0  0  0  0
  1  4  1  0  0  0  0
  1  5  1  0  0  0  0
  5  6  1  0  0  0  0
  5  7  1  0  0  0  0
  5  8  1  0  0  0  0
  8  9  1  0  0  0  0
  8 10  1  0  0  0  0
  8 11  1  0  0  0  0
 11 12  1  0  0  0  0
 11 13  1  0  0  0  0
 11 14  1  0  0  0  0
 14 15  1  0  0  0  0
 14 16  1  0  0  0  0
 14 17  1  0  0  0  0
 17 18  1  0  0  0  0
 17 19  1  0  0  0  0
 19 20  1  0  0  0  0
 19 21  1  0  0  0  0
 19 22  1  0  0  0  0
 17 23  1  0  0  0  0
 23 24  1  0  0  0  0
 23 25  1  0  0  0  0
 23 26  1  0  0  0  0
M  END
> <VM2 Rank>
14

> <Conf_Id>
229

> <Probability>
2.35

> <Sum Probability>
75.60

> <Delta G>
1.181

> <G>
24.891

> <E>
-7.809

> <-TS>
32.700

> <U+W>
-29.271

> <U>
24.614

> <W>
-53.885

> <W(PB)>
-56.192

> <W(SA)>
2.307

> <Valence>
3.779

> <Coulomb>
19.717

> <VdW>
1.118

> <VdW6>
-7.653

> <VdW12>
8.771

> <Bond>
0.222

> <Angle>
1.351

> <Pdih>
2.206

> <Idih>
0.000

> <Tether>
0.000

$$$$
VeraChem MOL file


 26 25  0  0  0  0  0  0  0  0999 V2000     
   20.5164   18.4100   19.0959 C   0  0  0  0  0  0  0  0  0  0  0  0
   19.7694   17.6125   18.9904 H   0  0  0  0  0  0  0  0  0  0  0  0
   20.2068   19.2542   18.4660 H   0  0  0  0  0  0  0  0  0  0  0  0
   21.4706   18.0318   18.7066 H   0  0  0  0  0  0  0  0  0  0  0  0
   20.6623   18.8414   20.5707 C   0  0  0  0  0  0  0  0  0  0  0  0
   21.4357   19.6183   20.6477 H   0  0  0  0  0  0  0  0  0  0  0  0
   21.0130   17.9828   21.1582 H   0  0  0  0  0  0  0  0  0  0  0  0
   19.3271   19.3742   21.1429 C   0  0  0  0  0  0  0  0  0  0  0  0
   18.9544   20.1733   20.4872 H   0  0  0  0  0  0  0  0  0  0  0  0
   18.5693   18.5789   21.1191 H   0  0  0  0  0  0  0  0  0  0  0  0
   19.4445   19.9378   22.5808 C   0  0  0  0  0  0  0  0  0  0  0  0
   18.4914   20.4215   22.8299 H   0  0  0  0  0  0  0  0  0  0  0  0
   20.2082   20.7274   22.6049 H   0  0  0  0  0  0  0  0  0  0  0  0
   19.7731   18.8582   23.6450 C   0  0  0  0  0  0  0  0  0  0  0  0
   19.0034   18.0752   23.6289 H   0  0  0  0  0  0  0  0  0  0  0  0
   20.7190   18.3710   23.3797 H   0  0  0  0  0  0  0  0  0  0  0  0
   19.9132   19.4195   25.0790 C   0  0  1  0  0  0  0  0  0  0  0  0
   20.6400   20.2374   25.0579 H   0  0  0  0  0  0  0  0  0  0  0  0
   18.5810   19.9645   25.6251 C   0  0  0  0  0  0  0  0  0  0  0  0
   17.7982   19.1962   25.6015 H   0  0  0  0  0  0  0  0  0  0  0  0
   18.2338   20.8274   25.0455 H   0  0  0  0  0  0  0  0  0  0  0  0
   18.6974   20.2990   26.6633 H   0  0  0  0  0  0  0  0  0  0  0  0
   20.4704   18.3824   26.0145 N   0  3  0  0  0  0  0  0  0  0  0  0
   21.3802   18.0366   25.6963 H   0  0  0  0  0  0  0  0  0  0  0  0
   20.6020   18.7608   26.9568 H   0  0  0  0  0  0  0  0  0  0  0  0
   19.8455   17.5757   26.0943 H   0  0  0  0  0  0  0  0  0  0  0  0
  1  2  1  0  0  0  0
  1  3  1  0  0  0  0
  1  4  1  0  0  0  0
  1  5  1  0  0  0  0
  5  6  1  0  0  0  0
  5  7  1  0  0  0  0
  5  8  1  0  0  0  0
  8  9  1  0  0  0  0
  8 10  1  0  0  0  0
  8 11  1  0  0  0  0
 11 12  1  0  0  0  0
 11 13  1  0  0  0  0
 11 14  1  0  0  0  0
 14 15  1  0  0  0  0
 14 16  1  0  0  0  0
 14 17  1  0  0  0  0
 17 18  1  0  0  0  0
 17 19  1  0  0  0  0
 19 20  1  0  0  0  0
 19 21  1  0  0  0  0
 19 22  1  0  0  0  0
 17 23  1  0  0  0  0
 23 24  1  0  0  0  0
 23 25  1  0  0  0  0
 23 26  1  0  0  0  0
M  END
> <VM2 Rank>
15

> <Conf_Id>
848

> <Probability>
2.26

> <Sum Probability>
77.87

> <Delta G>
1.203

> <G>
24.913

> <E>
-7.676

> <-TS>
32.589

> <U+W>
-29.138

> <U>
24.912

> <W>
-54.050

> <W(PB)>
-56.344

> <W(SA)>
2.294

> <Valence>
3.916

> <Coulomb>
19.768

> <VdW>
1.228

> <VdW6>
-7.563

> <VdW12>
8.791

> <Bond>
0.234

> <Angle>
1.481

> <Pdih>
2.202

> <Idih>
0.000

> <Tether>
0.000

$$$$
VeraChem MOL file


 26 25  0  0  0  0  0  0  0  0999 V2000     
   20.2880   19.1208   19.0370 C   0  0  0  0  0  0  0  0  0  0  0  0
   19.9184   18.1614   18.6519 H   0  0  0  0  0  0  0  0  0  0  0  0
   19.9355   19.9123   18.3630 H   0  0  0  0  0  0  0  0  0  0  0  0
   21.3849   19.1063   18.9953 H   0  0  0  0  0  0  0  0  0  0  0  0
   19.7913   19.3699   20.4769 C   0  0  0  0  0  0  0  0  0  0  0  0
   18.6930   19.4084   20.4816 H   0  0  0  0  0  0  0  0  0  0  0  0
   20.1463   20.3540   20.8103 H   0  0  0  0  0  0  0  0  0  0  0  0
   20.2798   18.2682   21.4469 C   0  0  0  0  0  0  0  0  0  0  0  0
   19.9827   17.2872   21.0508 H   0  0  0  0  0  0  0  0  0  0  0  0
   21.3780   18.2658   21.4821 H   0  0  0  0  0  0  0  0  0  0  0  0
   19.7139   18.4093   22.8815 C   0  0  0  0  0  0  0  0  0  0  0  0
   20.0163   17.5241   23.4561 H   0  0  0  0  0  0  0  0  0  0  0  0
   18.6169   18.3908   22.8372 H   0  0  0  0  0  0  0  0  0  0  0  0
   20.1985   19.6923   23.6107 C   0  0  0  0  0  0  0  0  0  0  0  0
   21.2932   19.7503   23.5515 H   0  0  0  0  0  0  0  0  0  0  0  0
   19.8187   20.5797   23.0893 H   0  0  0  0  0  0  0  0  0  0  0  0
   19.7826   19.7901   25.0977 C   0  0  1  0  0  0  0  0  0  0  0  0
   20.1925   20.7265   25.4886 H   0  0  0  0  0  0  0  0  0  0  0  0
   18.2542   19.8443   25.2673 C   0  0  0  0  0  0  0  0  0  0  0  0
   17.8221   20.6450   24.6544 H   0  0  0  0  0  0  0  0  0  0  0  0
   17.9913   20.0472   26.3128 H   0  0  0  0  0  0  0  0  0  0  0  0
   17.7807   18.8979   24.9805 H   0  0  0  0  0  0  0  0  0  0  0  0
   20.3797   18.6932   25.9360 N   0  3  0  0  0  0  0  0  0  0  0  0
   21.4008   18.6774   25.8621 H   0  0  0  0  0  0  0  0  0  0  0  0
   20.1468   18.8103   26.9262 H   0  0  0  0  0  0  0  0  0  0  0  0
   20.0355   17.7745   25.6469 H   0  0  0  0  0  0  0  0  0  0  0  0
  1  2  1  0  0  0  0
  1  3  1  0  0  0  0
  1  4  1  0  0  0  0
  1  5  1  0  0  0  0
  5  6  1  0  0  0  0
  5  7  1  0  0  0  0
  5  8  1  0  0  0  0
  8  9  1  0  0  0  0
  8 10  1  0  0  0  0
  8 11  1  0  0  0  0
 11 12  1  0  0  0  0
 11 13  1  0  0  0  0
 11 14  1  0  0  0  0
 14 15  1  0  0  0  0
 14 16  1  0  0  0  0
 14 17  1  0  0  0  0
 17 18  1  0  0  0  0
 17 19  1  0  0  0  0
 19 20  1  0  0  0  0
 19 21  1  0  0  0  0
 19 22  1  0  0  0  0
 17 23  1  0  0  0  0
 23 24  1  0  0  0  0
 23 25  1  0  0  0  0
 23 26  1  0  0  0  0
M  END
> <VM2 Rank>
16

> <Conf_Id>
163

> <Probability>
1.94

> <Sum Probability>
79.81

> <Delta G>
1.295

> <G>
25.005

> <E>
-7.804

> <-TS>
32.809

> <U+W>
-29.265

> <U>
24.725

> <W>
-53.991

> <W(PB)>
-56.300

> <W(SA)>
2.309

> <Valence>
3.779

> <Coulomb>
19.804

> <VdW>
1.142

> <VdW6>
-8.104

> <VdW12>
9.246

> <Bond>
0.254

> <Angle>
1.437

> <Pdih>
2.089

> <Idih>
0.000

> <Tether>
0.000

$$$$
VeraChem MOL file


 26 25  0  0  0  0  0  0  0  0999 V2000     
   20.1941   20.0427   19.9068 C   0  0  0  0  0  0  0  0  0  0  0  0
   21.2230   19.9152   19.5464 H   0  0  0  0  0  0  0  0  0  0  0  0
   19.6095   20.5019   19.0992 H   0  0  0  0  0  0  0  0  0  0  0  0
   20.2083   20.7486   20.7465 H   0  0  0  0  0  0  0  0  0  0  0  0
   19.5775   18.6865   20.3176 C   0  0  0  0  0  0  0  0  0  0  0  0
   19.4740   18.0595   19.4211 H   0  0  0  0  0  0  0  0  0  0  0  0
   18.5574   18.8413   20.6933 H   0  0  0  0  0  0  0  0  0  0  0  0
   20.4237   17.9150   21.3625 C   0  0  0  0  0  0  0  0  0  0  0  0
   19.9297   16.9581   21.5808 H   0  0  0  0  0  0  0  0  0  0  0  0
   21.3918   17.6566   20.9116 H   0  0  0  0  0  0  0  0  0  0  0  0
   20.6824   18.6644   22.6954 C   0  0  0  0  0  0  0  0  0  0  0  0
   21.2692   19.5730   22.5057 H   0  0  0  0  0  0  0  0  0  0  0  0
   21.3131   18.0230   23.3247 H   0  0  0  0  0  0  0  0  0  0  0  0
   19.3855   19.0293   23.4625 C   0  0  0  0  0  0  0  0  0  0  0  0
   18.7711   19.6904   22.8387 H   0  0  0  0  0  0  0  0  0  0  0  0
   18.7918   18.1231   23.6416 H   0  0  0  0  0  0  0  0  0  0  0  0
   19.6599   19.7444   24.8035 C   0  0  1  0  0  0  0  0  0  0  0  0
   20.2828   20.6216   24.6029 H   0  0  0  0  0  0  0  0  0  0  0  0
   18.3418   20.2229   25.4331 C   0  0  0  0  0  0  0  0  0  0  0  0
   17.8118   20.9056   24.7573 H   0  0  0  0  0  0  0  0  0  0  0  0
   18.5318   20.7629   26.3688 H   0  0  0  0  0  0  0  0  0  0  0  0
   17.6779   19.3779   25.6548 H   0  0  0  0  0  0  0  0  0  0  0  0
   20.4231   18.8829   25.7725 N   0  3  0  0  0  0  0  0  0  0  0  0
   21.3257   18.5941   25.3864 H   0  0  0  0  0  0  0  0  0  0  0  0
   20.6100   19.3798   26.6480 H   0  0  0  0  0  0  0  0  0  0  0  0
   19.9022   18.0339   26.0074 H   0  0  0  0  0  0  0  0  0  0  0  0
  1  2  1  0  0  0  0
  1  3  1  0  0  0  0
  1  4  1  0  0  0  0
  1  5  1  0  0  0  0
  5  6  1  0  0  0  0
  5  7  1  0  0  0  0
  5  8  1  0  0  0  0
  8  9  1  0  0  0  0
  8 10  1  0  0  0  0
  8 11  1  0  0  0  0
 11 12  1  0  0  0  0
 11 13  1  0  0  0  0
 11 14  1  0  0  0  0
 14 15  1  0  0  0  0
 14 16  1  0  0  0  0
 14 17  1  0  0  0  0
 17 18  1  0  0  0  0
 17 19  1  0  0  0  0
 19 20  1  0  0  0  0
 19 21  1  0  0  0  0
 19 22  1  0  0  0  0
 17 23  1  0  0  0  0
 23 24  1  0  0  0  0
 23 25  1  0  0  0  0
 23 26  1  0  0  0  0
M  END
> <VM2 Rank>
17

> <Conf_Id>
879

> <Probability>
1.91

> <Sum Probability>
81.71

> <Delta G>
1.306

> <G>
25.016

> <E>
-7.959

> <-TS>
32.975

> <U+W>
-29.421

> <U>
24.692

> <W>
-54.113

> <W(PB)>
-56.398

> <W(SA)>
2.285

> <Valence>
3.726

> <Coulomb>
19.918

> <VdW>
1.047

> <VdW6>
-8.393

> <VdW12>
9.440

> <Bond>
0.259

> <Angle>
1.567

> <Pdih>
1.900

> <Idih>
0.000

> <Tether>
0.000

$$$$
VeraChem MOL file


 26 25  0  0  0  0  0  0  0  0999 V2000     
   20.6672   19.8502   19.6718 C   0  0  0  0  0  0  0  0  0  0  0  0
   21.1009   19.0409   19.0699 H   0  0  0  0  0  0  0  0  0  0  0  0
   20.1126   20.5130   18.9949 H   0  0  0  0  0  0  0  0  0  0  0  0
   21.4903   20.4290   20.1107 H   0  0  0  0  0  0  0  0  0  0  0  0
   19.7371   19.2896   20.7684 C   0  0  0  0  0  0  0  0  0  0  0  0
   18.9081   18.7421   20.2986 H   0  0  0  0  0  0  0  0  0  0  0  0
   19.2928   20.1281   21.3210 H   0  0  0  0  0  0  0  0  0  0  0  0
   20.4978   18.3542   21.7374 C   0  0  0  0  0  0  0  0  0  0  0  0
   20.9919   17.5638   21.1555 H   0  0  0  0  0  0  0  0  0  0  0  0
   21.3033   18.9121   22.2330 H   0  0  0  0  0  0  0  0  0  0  0  0
   19.5841   17.6828   22.7953 C   0  0  0  0  0  0  0  0  0  0  0  0
   20.1904   17.0013   23.4071 H   0  0  0  0  0  0  0  0  0  0  0  0
   18.8513   17.0455   22.2816 H   0  0  0  0  0  0  0  0  0  0  0  0
   18.8237   18.6685   23.7224 C   0  0  0  0  0  0  0  0  0  0  0  0
   18.0803   19.2183   23.1310 H   0  0  0  0  0  0  0  0  0  0  0  0
   18.2513   18.0927   24.4618 H   0  0  0  0  0  0  0  0  0  0  0  0
   19.7358   19.6771   24.4552 C   0  0  1  0  0  0  0  0  0  0  0  0
   20.2956   20.2428   23.7044 H   0  0  0  0  0  0  0  0  0  0  0  0
   18.8914   20.6686   25.2711 C   0  0  0  0  0  0  0  0  0  0  0  0
   18.3093   20.1522   26.0447 H   0  0  0  0  0  0  0  0  0  0  0  0
   18.1922   21.2109   24.6223 H   0  0  0  0  0  0  0  0  0  0  0  0
   19.5319   21.4106   25.7636 H   0  0  0  0  0  0  0  0  0  0  0  0
   20.7510   18.9970   25.3324 N   0  3  0  0  0  0  0  0  0  0  0  0
   20.2995   18.4507   26.0705 H   0  0  0  0  0  0  0  0  0  0  0  0
   21.3400   18.3578   24.7920 H   0  0  0  0  0  0  0  0  0  0  0  0
   21.3687   19.6754   25.7869 H   0  0  0  0  0  0  0  0  0  0  0  0
  1  2  1  0  0  0  0
  1  3  1  0  0  0  0
  1  4  1  0  0  0  0
  1  5  1  0  0  0  0
  5  6  1  0  0  0  0
  5  7  1  0  0  0  0
  5  8  1  0  0  0  0
  8  9  1  0  0  0  0
  8 10  1  0  0  0  0
  8 11  1  0  0  0  0
 11 12  1  0  0  0  0
 11 13  1  0  0  0  0
 11 14  1  0  0  0  0
 14 15  1  0  0  0  0
 14 16  1  0  0  0  0
 14 17  1  0  0  0  0
 17 18  1  0  0  0  0
 17 19  1  0  0  0  0
 19 20  1  0  0  0  0
 19 21  1  0  0  0  0
 19 22  1  0  0  0  0
 17 23  1  0  0  0  0
 23 24  1  0  0  0  0
 23 25  1  0  0  0  0
 23 26  1  0  0  0  0
M  END
> <VM2 Rank>
18

> <Conf_Id>
441

> <Probability>
1.87

> <Sum Probability>
83.58

> <Delta G>
1.318

> <G>
25.028

> <E>
-7.992

> <-TS>
33.020

> <U+W>
-29.454

> <U>
24.584

> <W>
-54.038

> <W(PB)>
-56.326

> <W(SA)>
2.288

> <Valence>
3.508

> <Coulomb>
20.402

> <VdW>
0.674

> <VdW6>
-8.750

> <VdW12>
9.423

> <Bond>
0.246

> <Angle>
1.409

> <Pdih>
1.854

> <Idih>
0.000

> <Tether>
0.000

$$$$
VeraChem MOL file


 26 25  0  0  0  0  0  0  0  0999 V2000     
   20.5828   18.9537   19.0883 C   0  0  0  0  0  0  0  0  0  0  0  0
   21.5790   19.0695   18.6420 H   0  0  0  0  0  0  0  0  0  0  0  0
   20.1450   18.0256   18.6982 H   0  0  0  0  0  0  0  0  0  0  0  0
   19.9620   19.7934   18.7496 H   0  0  0  0  0  0  0  0  0  0  0  0
   20.6763   18.9193   20.6286 C   0  0  0  0  0  0  0  0  0  0  0  0
   21.1559   19.8439   20.9759 H   0  0  0  0  0  0  0  0  0  0  0  0
   21.3262   18.0879   20.9351 H   0  0  0  0  0  0  0  0  0  0  0  0
   19.2822   18.7611   21.2805 C   0  0  0  0  0  0  0  0  0  0  0  0
   18.6503   19.6209   21.0183 H   0  0  0  0  0  0  0  0  0  0  0  0
   18.7892   17.8762   20.8546 H   0  0  0  0  0  0  0  0  0  0  0  0
   19.3297   18.6009   22.8201 C   0  0  0  0  0  0  0  0  0  0  0  0
   19.9571   17.7362   23.0736 H   0  0  0  0  0  0  0  0  0  0  0  0
   18.3158   18.3605   23.1649 H   0  0  0  0  0  0  0  0  0  0  0  0
   19.8423   19.8691   23.5563 C   0  0  0  0  0  0  0  0  0  0  0  0
   20.8672   20.0919   23.2357 H   0  0  0  0  0  0  0  0  0  0  0  0
   19.2359   20.7339   23.2564 H   0  0  0  0  0  0  0  0  0  0  0  0
   19.8395   19.7709   25.1004 C   0  0  1  0  0  0  0  0  0  0  0  0
   20.2721   20.6999   25.4848 H   0  0  0  0  0  0  0  0  0  0  0  0
   18.4161   19.6520   25.6730 C   0  0  0  0  0  0  0  0  0  0  0  0
   17.9521   18.6929   25.4146 H   0  0  0  0  0  0  0  0  0  0  0  0
   17.7749   20.4579   25.2950 H   0  0  0  0  0  0  0  0  0  0  0  0
   18.4360   19.7292   26.7670 H   0  0  0  0  0  0  0  0  0  0  0  0
   20.7191   18.6609   25.6068 N   0  3  0  0  0  0  0  0  0  0  0  0
   21.6803   18.7589   25.2678 H   0  0  0  0  0  0  0  0  0  0  0  0
   20.7554   18.6495   26.6300 H   0  0  0  0  0  0  0  0  0  0  0  0
   20.3761   17.7468   25.3018 H   0  0  0  0  0  0  0  0  0  0  0  0
  1  2  1  0  0  0  0
  1  3  1  0  0  0  0
  1  4  1  0  0  0  0
  1  5  1  0  0  0  0
  5  6  1  0  0  0  0
  5  7  1  0  0  0  0
  5  8  1  0  0  0  0
  8  9  1  0  0  0  0
  8 10  1  0  0  0  0
  8 11  1  0  0  0  0
 11 12  1  0  0  0  0
 11 13  1  0  0  0  0
 11 14  1  0  0  0  0
 14 15  1  0  0  0  0
 14 16  1  0  0  0  0
 14 17  1  0  0  0  0
 17 18  1  0  0  0  0
 17 19  1  0  0  0  0
 19 20  1  0  0  0  0
 19 21  1  0  0  0  0
 19 22  1  0  0  0  0
 17 23  1  0  0  0  0
 23 24  1  0  0  0  0
 23 25  1  0  0  0  0
 23 26  1  0  0  0  0
M  END
> <VM2 Rank>
19

> <Conf_Id>
197

> <Probability>
1.86

> <Sum Probability>
85.44

> <Delta G>
1.320

> <G>
25.030

> <E>
-7.728

> <-TS>
32.758

> <U+W>
-29.190

> <U>
24.990

> <W>
-54.180

> <W(PB)>
-56.459

> <W(SA)>
2.279

> <Valence>
3.862

> <Coulomb>
19.956

> <VdW>
1.172

> <VdW6>
-8.054

> <VdW12>
9.225

> <Bond>
0.258

> <Angle>
1.499

> <Pdih>
2.106

> <Idih>
0.000

> <Tether>
0.000

$$$$
VeraChem MOL file


 26 25  0  0  0  0  0  0  0  0999 V2000     
   20.2946   17.6424   20.3254 C   0  0  0  0  0  0  0  0  0  0  0  0
   20.3338   17.2062   21.3312 H   0  0  0  0  0  0  0  0  0  0  0  0
   19.7459   16.9419   19.6828 H   0  0  0  0  0  0  0  0  0  0  0  0
   21.3204   17.7173   19.9420 H   0  0  0  0  0  0  0  0  0  0  0  0
   19.6028   19.0244   20.3340 C   0  0  0  0  0  0  0  0  0  0  0  0
   18.5872   18.9279   20.7406 H   0  0  0  0  0  0  0  0  0  0  0  0
   19.4795   19.3645   19.2964 H   0  0  0  0  0  0  0  0  0  0  0  0
   20.3928   20.1046   21.1162 C   0  0  0  0  0  0  0  0  0  0  0  0
   21.3578   20.2695   20.6175 H   0  0  0  0  0  0  0  0  0  0  0  0
   19.8520   21.0584   21.0462 H   0  0  0  0  0  0  0  0  0  0  0  0
   20.6536   19.7806   22.6098 C   0  0  0  0  0  0  0  0  0  0  0  0
   21.2264   20.6096   23.0482 H   0  0  0  0  0  0  0  0  0  0  0  0
   21.2957   18.8939   22.6860 H   0  0  0  0  0  0  0  0  0  0  0  0
   19.3553   19.5757   23.4312 C   0  0  0  0  0  0  0  0  0  0  0  0
   18.6902   20.4332   23.2636 H   0  0  0  0  0  0  0  0  0  0  0  0
   18.8195   18.6866   23.0750 H   0  0  0  0  0  0  0  0  0  0  0  0
   19.6199   19.4381   24.9460 C   0  0  1  0  0  0  0  0  0  0  0  0
   20.1699   20.3234   25.2797 H   0  0  0  0  0  0  0  0  0  0  0  0
   18.2918   19.3760   25.7173 C   0  0  0  0  0  0  0  0  0  0  0  0
   18.4726   19.3156   26.7976 H   0  0  0  0  0  0  0  0  0  0  0  0
   17.7004   18.5009   25.4201 H   0  0  0  0  0  0  0  0  0  0  0  0
   17.6902   20.2743   25.5305 H   0  0  0  0  0  0  0  0  0  0  0  0
   20.4773   18.2462   25.2741 N   0  3  0  0  0  0  0  0  0  0  0  0
   21.3832   18.2959   24.8005 H   0  0  0  0  0  0  0  0  0  0  0  0
   20.6606   18.1828   26.2795 H   0  0  0  0  0  0  0  0  0  0  0  0
   20.0270   17.3727   24.9890 H   0  0  0  0  0  0  0  0  0  0  0  0
  1  2  1  0  0  0  0
  1  3  1  0  0  0  0
  1  4  1  0  0  0  0
  1  5  1  0  0  0  0
  5  6  1  0  0  0  0
  5  7  1  0  0  0  0
  5  8  1  0  0  0  0
  8  9  1  0  0  0  0
  8 10  1  0  0  0  0
  8 11  1  0  0  0  0
 11 12  1  0  0  0  0
 11 13  1  0  0  0  0
 11 14  1  0  0  0  0
 14 15  1  0  0  0  0
 14 16  1  0  0  0  0
 14 17  1  0  0  0  0
 17 18  1  0  0  0  0
 17 19  1  0  0  0  0
 19 20  1  0  0  0  0
 19 21  1  0  0  0  0
 19 22  1  0  0  0  0
 17 23  1  0  0  0  0
 23 24  1  0  0  0  0
 23 25  1  0  0  0  0
 23 26  1  0  0  0  0
M  END
> <VM2 Rank>
20

> <Conf_Id>
198

> <Probability>
1.63

> <Sum Probability>
87.07

> <Delta G>
1.401

> <G>
25.111

> <E>
-7.885

> <-TS>
32.996

> <U+W>
-29.347

> <U>
24.852

> <W>
-54.199

> <W(PB)>
-56.471

> <W(SA)>
2.273

> <Valence>
3.679

> <Coulomb>
20.236

> <VdW>
0.936

> <VdW6>
-8.465

> <VdW12>
9.402

> <Bond>
0.251

> <Angle>
1.471

> <Pdih>
1.958

> <Idih>
0.000

> <Tether>
0.000

$$$$
VeraChem MOL file


 26 25  0  0  0  0  0  0  0  0999 V2000     
   19.4665   19.7365   19.6717 C   0  0  0  0  0  0  0  0  0  0  0  0
   19.5188   19.7636   18.5756 H   0  0  0  0  0  0  0  0  0  0  0  0
   18.5071   19.2800   19.9446 H   0  0  0  0  0  0  0  0  0  0  0  0
   19.4703   20.7728   20.0336 H   0  0  0  0  0  0  0  0  0  0  0  0
   20.6589   18.9412   20.2502 C   0  0  0  0  0  0  0  0  0  0  0  0
   21.5925   19.3635   19.8530 H   0  0  0  0  0  0  0  0  0  0  0  0
   20.6168   17.9016   19.8962 H   0  0  0  0  0  0  0  0  0  0  0  0
   20.7204   18.9664   21.7963 C   0  0  0  0  0  0  0  0  0  0  0  0
   21.6498   18.4757   22.1170 H   0  0  0  0  0  0  0  0  0  0  0  0
   20.7863   20.0087   22.1359 H   0  0  0  0  0  0  0  0  0  0  0  0
   19.5169   18.2604   22.4701 C   0  0  0  0  0  0  0  0  0  0  0  0
   19.4107   17.2511   22.0492 H   0  0  0  0  0  0  0  0  0  0  0  0
   18.5849   18.7874   22.2307 H   0  0  0  0  0  0  0  0  0  0  0  0
   19.6672   18.1383   24.0085 C   0  0  0  0  0  0  0  0  0  0  0  0
   18.7873   17.6213   24.4136 H   0  0  0  0  0  0  0  0  0  0  0  0
   20.5266   17.4893   24.2224 H   0  0  0  0  0  0  0  0  0  0  0  0
   19.8609   19.4792   24.7553 C   0  0  1  0  0  0  0  0  0  0  0  0
   20.7433   19.9787   24.3445 H   0  0  0  0  0  0  0  0  0  0  0  0
   18.6503   20.4149   24.5882 C   0  0  0  0  0  0  0  0  0  0  0  0
   17.7269   19.9349   24.9353 H   0  0  0  0  0  0  0  0  0  0  0  0
   18.5138   20.7055   23.5400 H   0  0  0  0  0  0  0  0  0  0  0  0
   18.7920   21.3373   25.1648 H   0  0  0  0  0  0  0  0  0  0  0  0
   20.1469   19.2512   26.2137 N   0  3  0  0  0  0  0  0  0  0  0  0
   20.9756   18.6649   26.3487 H   0  0  0  0  0  0  0  0  0  0  0  0
   20.3155   20.1338   26.7046 H   0  0  0  0  0  0  0  0  0  0  0  0
   19.3631   18.7874   26.6808 H   0  0  0  0  0  0  0  0  0  0  0  0
  1  2  1  0  0  0  0
  1  3  1  0  0  0  0
  1  4  1  0  0  0  0
  1  5  1  0  0  0  0
  5  6  1  0  0  0  0
  5  7  1  0  0  0  0
  5  8  1  0  0  0  0
  8  9  1  0  0  0  0
  8 10  1  0  0  0  0
  8 11  1  0  0  0  0
 11 12  1  0  0  0  0
 11 13  1  0  0  0  0
 11 14  1  0  0  0  0
 14 15  1  0  0  0  0
 14 16  1  0  0  0  0
 14 17  1  0  0  0  0
 17 18  1  0  0  0  0
 17 19  1  0  0  0  0
 19 20  1  0  0  0  0
 19 21  1  0  0  0  0
 19 22  1  0  0  0  0
 17 23  1  0  0  0  0
 23 24  1  0  0  0  0
 23 25  1  0  0  0  0
 23 26  1  0  0  0  0
M  END
> <VM2 Rank>
21

> <Conf_Id>
763

> <Probability>
1.60

> <Sum Probability>
88.67

> <Delta G>
1.410

> <G>
25.120

> <E>
-7.847

> <-TS>
32.967

> <U+W>
-29.309

> <U>
24.864

> <W>
-54.173

> <W(PB)>
-56.445

> <W(SA)>
2.272

> <Valence>
4.005

> <Coulomb>
19.922

> <VdW>
0.937

> <VdW6>
-8.619

> <VdW12>
9.556

> <Bond>
0.248

> <Angle>
1.606

> <Pdih>
2.151

> <Idih>
0.000

> <Tether>
0.000

$$$$
VeraChem MOL file


 26 25  0  0  0  0  0  0  0  0999 V2000     
   20.1154   18.5741   19.3460 C   0  0  0  0  0  0  0  0  0  0  0  0
   19.3471   19.3020   19.0548 H   0  0  0  0  0  0  0  0  0  0  0  0
   20.7123   18.3418   18.4546 H   0  0  0  0  0  0  0  0  0  0  0  0
   19.6138   17.6491   19.6559 H   0  0  0  0  0  0  0  0  0  0  0  0
   21.0171   19.1363   20.4685 C   0  0  0  0  0  0  0  0  0  0  0  0
   21.5918   19.9832   20.0680 H   0  0  0  0  0  0  0  0  0  0  0  0
   21.7548   18.3777   20.7652 H   0  0  0  0  0  0  0  0  0  0  0  0
   20.2294   19.6160   21.7115 C   0  0  0  0  0  0  0  0  0  0  0  0
   20.9352   20.1126   22.3901 H   0  0  0  0  0  0  0  0  0  0  0  0
   19.5003   20.3807   21.4100 H   0  0  0  0  0  0  0  0  0  0  0  0
   19.5041   18.4698   22.4616 C   0  0  0  0  0  0  0  0  0  0  0  0
   20.2264   17.6906   22.7387 H   0  0  0  0  0  0  0  0  0  0  0  0
   18.7834   17.9897   21.7871 H   0  0  0  0  0  0  0  0  0  0  0  0
   18.7345   18.9525   23.7181 C   0  0  0  0  0  0  0  0  0  0  0  0
   17.9584   19.6636   23.4049 H   0  0  0  0  0  0  0  0  0  0  0  0
   18.2058   18.0987   24.1625 H   0  0  0  0  0  0  0  0  0  0  0  0
   19.6222   19.6178   24.7941 C   0  0  1  0  0  0  0  0  0  0  0  0
   20.1218   20.4808   24.3445 H   0  0  0  0  0  0  0  0  0  0  0  0
   18.7595   20.1208   25.9625 C   0  0  0  0  0  0  0  0  0  0  0  0
   18.0067   20.8372   25.6107 H   0  0  0  0  0  0  0  0  0  0  0  0
   19.3788   20.6297   26.7113 H   0  0  0  0  0  0  0  0  0  0  0  0
   18.2376   19.2918   26.4568 H   0  0  0  0  0  0  0  0  0  0  0  0
   20.7057   18.7008   25.2917 N   0  3  0  0  0  0  0  0  0  0  0  0
   21.3001   19.1641   25.9848 H   0  0  0  0  0  0  0  0  0  0  0  0
   20.3134   17.8652   25.7335 H   0  0  0  0  0  0  0  0  0  0  0  0
   21.3102   18.3905   24.5262 H   0  0  0  0  0  0  0  0  0  0  0  0
  1  2  1  0  0  0  0
  1  3  1  0  0  0  0
  1  4  1  0  0  0  0
  1  5  1  0  0  0  0
  5  6  1  0  0  0  0
  5  7  1  0  0  0  0
  5  8  1  0  0  0  0
  8  9  1  0  0  0  0
  8 10  1  0  0  0  0
  8 11  1  0  0  0  0
 11 12  1  0  0  0  0
 11 13  1  0  0  0  0
 11 14  1  0  0  0  0
 14 15  1  0  0  0  0
 14 16  1  0  0  0  0
 14 17  1  0  0  0  0
 17 18  1  0  0  0  0
 17 19  1  0  0  0  0
 19 20  1  0  0  0  0
 19 21  1  0  0  0  0
 19 22  1  0  0  0  0
 17 23  1  0  0  0  0
 23 24  1  0  0  0  0
 23 25  1  0  0  0  0
 23 26  1  0  0  0  0
M  END
> <VM2 Rank>
22

> <Conf_Id>
239

> <Probability>
1.59

> <Sum Probability>
90.26

> <Delta G>
1.415

> <G>
25.125

> <E>
-7.706

> <-TS>
32.831

> <U+W>
-29.168

> <U>
24.833

> <W>
-54.001

> <W(PB)>
-56.294

> <W(SA)>
2.294

> <Valence>
3.589

> <Coulomb>
20.270

> <VdW>
0.974

> <VdW6>
-8.254

> <VdW12>
9.228

> <Bond>
0.244

> <Angle>
1.377

> <Pdih>
1.968

> <Idih>
0.000

> <Tether>
0.000

$$$$
VeraChem MOL file


 26 25  0  0  0  0  0  0  0  0999 V2000     
   21.2412   18.1955   20.0741 C   0  0  0  0  0  0  0  0  0  0  0  0
   22.1525   18.4163   20.6447 H   0  0  0  0  0  0  0  0  0  0  0  0
   20.8107   17.2629   20.4593 H   0  0  0  0  0  0  0  0  0  0  0  0
   21.5336   18.0171   19.0312 H   0  0  0  0  0  0  0  0  0  0  0  0
   20.2339   19.3646   20.1603 C   0  0  0  0  0  0  0  0  0  0  0  0
   19.3212   19.1082   19.6044 H   0  0  0  0  0  0  0  0  0  0  0  0
   20.6646   20.2411   19.6563 H   0  0  0  0  0  0  0  0  0  0  0  0
   19.8706   19.7557   21.6129 C   0  0  0  0  0  0  0  0  0  0  0  0
   20.7874   20.0328   22.1500 H   0  0  0  0  0  0  0  0  0  0  0  0
   19.2432   20.6573   21.5848 H   0  0  0  0  0  0  0  0  0  0  0  0
   19.1165   18.6391   22.3784 C   0  0  0  0  0  0  0  0  0  0  0  0
   19.7576   17.7555   22.4889 H   0  0  0  0  0  0  0  0  0  0  0  0
   18.2523   18.3156   21.7822 H   0  0  0  0  0  0  0  0  0  0  0  0
   18.6110   19.0927   23.7719 C   0  0  0  0  0  0  0  0  0  0  0  0
   17.8849   19.9055   23.6371 H   0  0  0  0  0  0  0  0  0  0  0  0
   18.0612   18.2655   24.2402 H   0  0  0  0  0  0  0  0  0  0  0  0
   19.7288   19.5696   24.7264 C   0  0  1  0  0  0  0  0  0  0  0  0
   20.2510   20.4069   24.2541 H   0  0  0  0  0  0  0  0  0  0  0  0
   19.1262   20.0667   26.0499 C   0  0  0  0  0  0  0  0  0  0  0  0
   18.4186   20.8861   25.8724 H   0  0  0  0  0  0  0  0  0  0  0  0
   19.9115   20.4438   26.7167 H   0  0  0  0  0  0  0  0  0  0  0  0
   18.5929   19.2616   26.5709 H   0  0  0  0  0  0  0  0  0  0  0  0
   20.7599   18.5041   24.9800 N   0  3  0  0  0  0  0  0  0  0  0  0
   21.5073   18.8439   25.5918 H   0  0  0  0  0  0  0  0  0  0  0  0
   20.3453   17.6833   25.4289 H   0  0  0  0  0  0  0  0  0  0  0  0
   21.1942   18.1928   24.1069 H   0  0  0  0  0  0  0  0  0  0  0  0
  1  2  1  0  0  0  0
  1  3  1  0  0  0  0
  1  4  1  0  0  0  0
  1  5  1  0  0  0  0
  5  6  1  0  0  0  0
  5  7  1  0  0  0  0
  5  8  1  0  0  0  0
  8  9  1  0  0  0  0
  8 10  1  0  0  0  0
  8 11  1  0  0  0  0
 11 12  1  0  0  0  0
 11 13  1  0  0  0  0
 11 14  1  0  0  0  0
 14 15  1  0  0  0  0
 14 16  1  0  0  0  0
 14 17  1  0  0  0  0
 17 18  1  0  0  0  0
 17 19  1  0  0  0  0
 19 20  1  0  0  0  0
 19 21  1  0  0  0  0
 19 22  1  0  0  0  0
 17 23  1  0  0  0  0
 23 24  1  0  0  0  0
 23 25  1  0  0  0  0
 23 26  1  0  0  0  0
M  END
> <VM2 Rank>
23

> <Conf_Id>
531

> <Probability>
1.46

> <Sum Probability>
91.72

> <Delta G>
1.465

> <G>
25.175

> <E>
-7.697

> <-TS>
32.872

> <U+W>
-29.159

> <U>
24.809

> <W>
-53.969

> <W(PB)>
-56.251

> <W(SA)>
2.282

> <Valence>
3.513

> <Coulomb>
20.422

> <VdW>
0.874

> <VdW6>
-8.372

> <VdW12>
9.246

> <Bond>
0.236

> <Angle>
1.287

> <Pdih>
1.990

> <Idih>
0.000

> <Tether>
0.000

$$$$
VeraChem MOL file


 26 25  0  0  0  0  0  0  0  0999 V2000     
   19.0822   18.2866   20.0989 C   0  0  0  0  0  0  0  0  0  0  0  0
   18.9903   17.3521   19.5305 H   0  0  0  0  0  0  0  0  0  0  0  0
   18.4416   18.1983   20.9852 H   0  0  0  0  0  0  0  0  0  0  0  0
   18.6938   19.1004   19.4728 H   0  0  0  0  0  0  0  0  0  0  0  0
   20.5560   18.5406   20.4884 C   0  0  0  0  0  0  0  0  0  0  0  0
   21.1735   18.5022   19.5801 H   0  0  0  0  0  0  0  0  0  0  0  0
   20.9154   17.7251   21.1302 H   0  0  0  0  0  0  0  0  0  0  0  0
   20.7837   19.9081   21.1818 C   0  0  0  0  0  0  0  0  0  0  0  0
   21.8555   20.0228   21.3946 H   0  0  0  0  0  0  0  0  0  0  0  0
   20.5302   20.7110   20.4760 H   0  0  0  0  0  0  0  0  0  0  0  0
   19.9827   20.1253   22.4915 C   0  0  0  0  0  0  0  0  0  0  0  0
   18.9092   20.1332   22.2647 H   0  0  0  0  0  0  0  0  0  0  0  0
   20.2191   21.1253   22.8806 H   0  0  0  0  0  0  0  0  0  0  0  0
   20.2944   19.0716   23.5852 C   0  0  0  0  0  0  0  0  0  0  0  0
   19.9498   18.0811   23.2621 H   0  0  0  0  0  0  0  0  0  0  0  0
   21.3838   19.0018   23.7027 H   0  0  0  0  0  0  0  0  0  0  0  0
   19.6722   19.4043   24.9604 C   0  0  1  0  0  0  0  0  0  0  0  0
   19.9932   20.4103   25.2480 H   0  0  0  0  0  0  0  0  0  0  0  0
   18.1336   19.3761   24.9212 C   0  0  0  0  0  0  0  0  0  0  0  0
   17.7375   20.1496   24.2532 H   0  0  0  0  0  0  0  0  0  0  0  0
   17.7183   19.5656   25.9186 H   0  0  0  0  0  0  0  0  0  0  0  0
   17.7631   18.4022   24.5779 H   0  0  0  0  0  0  0  0  0  0  0  0
   20.1831   18.4753   26.0266 N   0  3  0  0  0  0  0  0  0  0  0  0
   21.2039   18.5103   26.1000 H   0  0  0  0  0  0  0  0  0  0  0  0
   19.8040   18.7172   26.9465 H   0  0  0  0  0  0  0  0  0  0  0  0
   19.9217   17.5047   25.8344 H   0  0  0  0  0  0  0  0  0  0  0  0
  1  2  1  0  0  0  0
  1  3  1  0  0  0  0
  1  4  1  0  0  0  0
  1  5  1  0  0  0  0
  5  6  1  0  0  0  0
  5  7  1  0  0  0  0
  5  8  1  0  0  0  0
  8  9  1  0  0  0  0
  8 10  1  0  0  0  0
  8 11  1  0  0  0  0
 11 12  1  0  0  0  0
 11 13  1  0  0  0  0
 11 14  1  0  0  0  0
 14 15  1  0  0  0  0
 14 16  1  0  0  0  0
 14 17  1  0  0  0  0
 17 18  1  0  0  0  0
 17 19  1  0  0  0  0
 19 20  1  0  0  0  0
 19 21  1  0  0  0  0
 19 22  1  0  0  0  0
 17 23  1  0  0  0  0
 23 24  1  0  0  0  0
 23 25  1  0  0  0  0
 23 26  1  0  0  0  0
M  END
> <VM2 Rank>
24

> <Conf_Id>
208

> <Probability>
1.19

> <Sum Probability>
92.91

> <Delta G>
1.586

> <G>
25.296

> <E>
-7.727

> <-TS>
33.023

> <U+W>
-29.189

> <U>
25.014

> <W>
-54.203

> <W(PB)>
-56.467

> <W(SA)>
2.263

> <Valence>
4.188

> <Coulomb>
19.774

> <VdW>
1.052

> <VdW6>
-8.655

> <VdW12>
9.707

> <Bond>
0.263

> <Angle>
1.714

> <Pdih>
2.211

> <Idih>
0.000

> <Tether>
0.000

$$$$
VeraChem MOL file


 26 25  0  0  0  0  0  0  0  0999 V2000     
   20.0609   18.6168   19.3310 C   0  0  0  0  0  0  0  0  0  0  0  0
   20.0511   18.9963   18.3010 H   0  0  0  0  0  0  0  0  0  0  0  0
   20.8098   17.8161   19.3863 H   0  0  0  0  0  0  0  0  0  0  0  0
   19.0745   18.1802   19.5299 H   0  0  0  0  0  0  0  0  0  0  0  0
   20.3902   19.7554   20.3231 C   0  0  0  0  0  0  0  0  0  0  0  0
   19.6091   20.5269   20.2734 H   0  0  0  0  0  0  0  0  0  0  0  0
   21.3228   20.2417   20.0046 H   0  0  0  0  0  0  0  0  0  0  0  0
   20.5574   19.2726   21.7842 C   0  0  0  0  0  0  0  0  0  0  0  0
   21.3448   18.5077   21.8296 H   0  0  0  0  0  0  0  0  0  0  0  0
   20.9143   20.1207   22.3831 H   0  0  0  0  0  0  0  0  0  0  0  0
   19.2501   18.7150   22.4024 C   0  0  0  0  0  0  0  0  0  0  0  0
   18.9023   17.8576   21.8119 H   0  0  0  0  0  0  0  0  0  0  0  0
   18.4552   19.4694   22.3362 H   0  0  0  0  0  0  0  0  0  0  0  0
   19.4195   18.2458   23.8709 C   0  0  0  0  0  0  0  0  0  0  0  0
   18.4634   17.8401   24.2273 H   0  0  0  0  0  0  0  0  0  0  0  0
   20.1297   17.4085   23.8869 H   0  0  0  0  0  0  0  0  0  0  0  0
   19.9108   19.3310   24.8582 C   0  0  1  0  0  0  0  0  0  0  0  0
   20.8689   19.7175   24.4987 H   0  0  0  0  0  0  0  0  0  0  0  0
   18.9220   20.5054   24.9668 C   0  0  0  0  0  0  0  0  0  0  0  0
   17.9262   20.1589   25.2703 H   0  0  0  0  0  0  0  0  0  0  0  0
   18.8258   21.0339   24.0112 H   0  0  0  0  0  0  0  0  0  0  0  0
   19.2689   21.2357   25.7081 H   0  0  0  0  0  0  0  0  0  0  0  0
   20.1772   18.7460   26.2174 N   0  3  0  0  0  0  0  0  0  0  0  0
   20.8659   17.9895   26.1744 H   0  0  0  0  0  0  0  0  0  0  0  0
   20.5408   19.4518   26.8640 H   0  0  0  0  0  0  0  0  0  0  0  0
   19.3245   18.3620   26.6333 H   0  0  0  0  0  0  0  0  0  0  0  0
  1  2  1  0  0  0  0
  1  3  1  0  0  0  0
  1  4  1  0  0  0  0
  1  5  1  0  0  0  0
  5  6  1  0  0  0  0
  5  7  1  0  0  0  0
  5  8  1  0  0  0  0
  8  9  1  0  0  0  0
  8 10  1  0  0  0  0
  8 11  1  0  0  0  0
 11 12  1  0  0  0  0
 11 13  1  0  0  0  0
 11 14  1  0  0  0  0
 14 15  1  0  0  0  0
 14 16  1  0  0  0  0
 14 17  1  0  0  0  0
 17 18  1  0  0  0  0
 17 19  1  0  0  0  0
 19 20  1  0  0  0  0
 19 21  1  0  0  0  0
 19 22  1  0  0  0  0
 17 23  1  0  0  0  0
 23 24  1  0  0  0  0
 23 25  1  0  0  0  0
 23 26  1  0  0  0  0
M  END
> <VM2 Rank>
25

> <Conf_Id>
5

> <Probability>
1.14

> <Sum Probability>
94.05

> <Delta G>
1.610

> <G>
25.320

> <E>
-7.603

> <-TS>
32.924

> <U+W>
-29.065

> <U>
25.023

> <W>
-54.088

> <W(PB)>
-56.383

> <W(SA)>
2.296

> <Valence>
4.083

> <Coulomb>
19.893

> <VdW>
1.047

> <VdW6>
-8.479

> <VdW12>
9.527

> <Bond>
0.256

> <Angle>
1.716

> <Pdih>
2.112

> <Idih>
0.000

> <Tether>
0.000

$$$$
VeraChem MOL file


 26 25  0  0  0  0  0  0  0  0999 V2000     
   21.1680   19.4000   19.7807 C   0  0  0  0  0  0  0  0  0  0  0  0
   20.4812   19.6015   18.9482 H   0  0  0  0  0  0  0  0  0  0  0  0
   21.5651   20.3598   20.1363 H   0  0  0  0  0  0  0  0  0  0  0  0
   22.0082   18.8120   19.3891 H   0  0  0  0  0  0  0  0  0  0  0  0
   20.4540   18.6397   20.9181 C   0  0  0  0  0  0  0  0  0  0  0  0
   21.1808   18.4219   21.7119 H   0  0  0  0  0  0  0  0  0  0  0  0
   20.0947   17.6722   20.5406 H   0  0  0  0  0  0  0  0  0  0  0  0
   19.2667   19.4508   21.4883 C   0  0  0  0  0  0  0  0  0  0  0  0
   19.6311   20.4028   21.8967 H   0  0  0  0  0  0  0  0  0  0  0  0
   18.5877   19.7153   20.6659 H   0  0  0  0  0  0  0  0  0  0  0  0
   18.4547   18.6864   22.5656 C   0  0  0  0  0  0  0  0  0  0  0  0
   18.0113   17.7903   22.1100 H   0  0  0  0  0  0  0  0  0  0  0  0
   17.6051   19.3080   22.8782 H   0  0  0  0  0  0  0  0  0  0  0  0
   19.2692   18.2581   23.8160 C   0  0  0  0  0  0  0  0  0  0  0  0
   18.5898   17.7880   24.5392 H   0  0  0  0  0  0  0  0  0  0  0  0
   19.9802   17.4750   23.5234 H   0  0  0  0  0  0  0  0  0  0  0  0
   20.0434   19.4018   24.5121 C   0  0  1  0  0  0  0  0  0  0  0  0
   20.7038   19.8686   23.7752 H   0  0  0  0  0  0  0  0  0  0  0  0
   19.0981   20.4797   25.0720 C   0  0  0  0  0  0  0  0  0  0  0  0
   18.5307   20.9667   24.2704 H   0  0  0  0  0  0  0  0  0  0  0  0
   19.6670   21.2617   25.5897 H   0  0  0  0  0  0  0  0  0  0  0  0
   18.3842   20.0493   25.7852 H   0  0  0  0  0  0  0  0  0  0  0  0
   20.9340   18.8715   25.6012 N   0  3  0  0  0  0  0  0  0  0  0  0
   21.6008   18.1824   25.2421 H   0  0  0  0  0  0  0  0  0  0  0  0
   21.4771   19.6212   26.0387 H   0  0  0  0  0  0  0  0  0  0  0  0
   20.3910   18.4174   26.3405 H   0  0  0  0  0  0  0  0  0  0  0  0
  1  2  1  0  0  0  0
  1  3  1  0  0  0  0
  1  4  1  0  0  0  0
  1  5  1  0  0  0  0
  5  6  1  0  0  0  0
  5  7  1  0  0  0  0
  5  8  1  0  0  0  0
  8  9  1  0  0  0  0
  8 10  1  0  0  0  0
  8 11  1  0  0  0  0
 11 12  1  0  0  0  0
 11 13  1  0  0  0  0
 11 14  1  0  0  0  0
 14 15  1  0  0  0  0
 14 16  1  0  0  0  0
 14 17  1  0  0  0  0
 17 18  1  0  0  0  0
 17 19  1  0  0  0  0
 19 20  1  0  0  0  0
 19 21  1  0  0  0  0
 19 22  1  0  0  0  0
 17 23  1  0  0  0  0
 23 24  1  0  0  0  0
 23 25  1  0  0  0  0
 23 26  1  0  0  0  0
M  END
> <VM2 Rank>
26

> <Conf_Id>
1079

> <Probability>
1.06

> <Sum Probability>
95.11

> <Delta G>
1.655

> <G>
25.365

> <E>
-7.775

> <-TS>
33.140

> <U+W>
-29.237

> <U>
25.091

> <W>
-54.328

> <W(PB)>
-56.623

> <W(SA)>
2.295

> <Valence>
3.982

> <Coulomb>
20.360

> <VdW>
0.750

> <VdW6>
-8.971

> <VdW12>
9.721

> <Bond>
0.256

> <Angle>
1.694

> <Pdih>
2.032

> <Idih>
0.000

> <Tether>
0.000

$$$$
VeraChem MOL file


 26 25  0  0  0  0  0  0  0  0999 V2000     
   19.0303   19.3234   19.9749 C   0  0  0  0  0  0  0  0  0  0  0  0
   18.7106   18.3321   19.6286 H   0  0  0  0  0  0  0  0  0  0  0  0
   18.3830   19.6223   20.8088 H   0  0  0  0  0  0  0  0  0  0  0  0
   18.8640   20.0353   19.1561 H   0  0  0  0  0  0  0  0  0  0  0  0
   20.5192   19.3133   20.3893 C   0  0  0  0  0  0  0  0  0  0  0  0
   20.8100   20.3085   20.7512 H   0  0  0  0  0  0  0  0  0  0  0  0
   21.1332   19.1278   19.4970 H   0  0  0  0  0  0  0  0  0  0  0  0
   20.8566   18.2364   21.4520 C   0  0  0  0  0  0  0  0  0  0  0  0
   20.6772   17.2428   21.0187 H   0  0  0  0  0  0  0  0  0  0  0  0
   21.9327   18.2790   21.6697 H   0  0  0  0  0  0  0  0  0  0  0  0
   20.0677   18.3478   22.7823 C   0  0  0  0  0  0  0  0  0  0  0  0
   20.3817   17.5213   23.4329 H   0  0  0  0  0  0  0  0  0  0  0  0
   18.9994   18.1913   22.5868 H   0  0  0  0  0  0  0  0  0  0  0  0
   20.2876   19.6985   23.5165 C   0  0  0  0  0  0  0  0  0  0  0  0
   21.3650   19.8796   23.6243 H   0  0  0  0  0  0  0  0  0  0  0  0
   19.9015   20.5201   22.9003 H   0  0  0  0  0  0  0  0  0  0  0  0
   19.6314   19.7925   24.9142 C   0  0  1  0  0  0  0  0  0  0  0  0
   19.8744   20.7789   25.3213 H   0  0  0  0  0  0  0  0  0  0  0  0
   18.0983   19.6844   24.8404 C   0  0  0  0  0  0  0  0  0  0  0  0
   17.7769   18.6836   24.5281 H   0  0  0  0  0  0  0  0  0  0  0  0
   17.6897   20.4142   24.1305 H   0  0  0  0  0  0  0  0  0  0  0  0
   17.6517   19.8886   25.8212 H   0  0  0  0  0  0  0  0  0  0  0  0
   20.1968   18.7918   25.8844 N   0  3  0  0  0  0  0  0  0  0  0  0
   21.2127   18.8858   25.9715 H   0  0  0  0  0  0  0  0  0  0  0  0
   19.7976   18.9107   26.8197 H   0  0  0  0  0  0  0  0  0  0  0  0
   20.0004   17.8331   25.5868 H   0  0  0  0  0  0  0  0  0  0  0  0
  1  2  1  0  0  0  0
  1  3  1  0  0  0  0
  1  4  1  0  0  0  0
  1  5  1  0  0  0  0
  5  6  1  0  0  0  0
  5  7  1  0  0  0  0
  5  8  1  0  0  0  0
  8  9  1  0  0  0  0
  8 10  1  0  0  0  0
  8 11  1  0  0  0  0
 11 12  1  0  0  0  0
 11 13  1  0  0  0  0
 11 14  1  0  0  0  0
 14 15  1  0  0  0  0
 14 16  1  0  0  0  0
 14 17  1  0  0  0  0
 17 18  1  0  0  0  0
 17 19  1  0  0  0  0
 19 20  1  0  0  0  0
 19 21  1  0  0  0  0
 19 22  1  0  0  0  0
 17 23  1  0  0  0  0
 23 24  1  0  0  0  0
 23 25  1  0  0  0  0
 23 26  1  0  0  0  0
M  END
> <VM2 Rank>
27

> <Conf_Id>
546

> <Probability>
0.84

> <Sum Probability>
95.95

> <Delta G>
1.794

> <G>
25.503

> <E>
-7.647

> <-TS>
33.151

> <U+W>
-29.109

> <U>
25.100

> <W>
-54.209

> <W(PB)>
-56.439

> <W(SA)>
2.229

> <Valence>
4.185

> <Coulomb>
19.843

> <VdW>
1.072

> <VdW6>
-9.124

> <VdW12>
10.197

> <Bond>
0.294

> <Angle>
1.814

> <Pdih>
2.077

> <Idih>
0.000

> <Tether>
0.000

$$$$
VeraChem MOL file


 26 25  0  0  0  0  0  0  0  0999 V2000     
   21.3088   19.2397   20.1277 C   0  0  0  0  0  0  0  0  0  0  0  0
   21.0048   20.1023   19.5206 H   0  0  0  0  0  0  0  0  0  0  0  0
   21.7556   19.6131   21.0575 H   0  0  0  0  0  0  0  0  0  0  0  0
   22.0916   18.7011   19.5782 H   0  0  0  0  0  0  0  0  0  0  0  0
   20.1080   18.3089   20.4106 C   0  0  0  0  0  0  0  0  0  0  0  0
   20.4311   17.4659   21.0355 H   0  0  0  0  0  0  0  0  0  0  0  0
   19.7732   17.8662   19.4621 H   0  0  0  0  0  0  0  0  0  0  0  0
   18.9051   19.0346   21.0662 C   0  0  0  0  0  0  0  0  0  0  0  0
   18.5152   19.7797   20.3591 H   0  0  0  0  0  0  0  0  0  0  0  0
   18.0931   18.3096   21.2155 H   0  0  0  0  0  0  0  0  0  0  0  0
   19.2042   19.7414   22.4141 C   0  0  0  0  0  0  0  0  0  0  0  0
   18.2824   20.2397   22.7398 H   0  0  0  0  0  0  0  0  0  0  0  0
   19.9427   20.5397   22.2625 H   0  0  0  0  0  0  0  0  0  0  0  0
   19.6950   18.7768   23.5250 C   0  0  0  0  0  0  0  0  0  0  0  0
   18.9494   17.9872   23.6868 H   0  0  0  0  0  0  0  0  0  0  0  0
   20.6099   18.2776   23.1835 H   0  0  0  0  0  0  0  0  0  0  0  0
   20.0090   19.4795   24.8660 C   0  0  1  0  0  0  0  0  0  0  0  0
   20.7059   20.2999   24.6685 H   0  0  0  0  0  0  0  0  0  0  0  0
   18.7472   20.0600   25.5299 C   0  0  0  0  0  0  0  0  0  0  0  0
   18.9911   20.4977   26.5058 H   0  0  0  0  0  0  0  0  0  0  0  0
   17.9879   19.2836   25.6862 H   0  0  0  0  0  0  0  0  0  0  0  0
   18.3047   20.8564   24.9210 H   0  0  0  0  0  0  0  0  0  0  0  0
   20.7107   18.5472   25.8145 N   0  3  0  0  0  0  0  0  0  0  0  0
   21.5788   18.1823   25.4122 H   0  0  0  0  0  0  0  0  0  0  0  0
   20.9561   19.0189   26.6896 H   0  0  0  0  0  0  0  0  0  0  0  0
   20.1221   17.7452   26.0550 H   0  0  0  0  0  0  0  0  0  0  0  0
  1  2  1  0  0  0  0
  1  3  1  0  0  0  0
  1  4  1  0  0  0  0
  1  5  1  0  0  0  0
  5  6  1  0  0  0  0
  5  7  1  0  0  0  0
  5  8  1  0  0  0  0
  8  9  1  0  0  0  0
  8 10  1  0  0  0  0
  8 11  1  0  0  0  0
 11 12  1  0  0  0  0
 11 13  1  0  0  0  0
 11 14  1  0  0  0  0
 14 15  1  0  0  0  0
 14 16  1  0  0  0  0
 14 17  1  0  0  0  0
 17 18  1  0  0  0  0
 17 19  1  0  0  0  0
 19 20  1  0  0  0  0
 19 21  1  0  0  0  0
 19 22  1  0  0  0  0
 17 23  1  0  0  0  0
 23 24  1  0  0  0  0
 23 25  1  0  0  0  0
 23 26  1  0  0  0  0
M  END
> <VM2 Rank>
28

> <Conf_Id>
264

> <Probability>
0.77

> <Sum Probability>
96.72

> <Delta G>
1.848

> <G>
25.558

> <E>
-7.392

> <-TS>
32.951

> <U+W>
-28.854

> <U>
25.366

> <W>
-54.220

> <W(PB)>
-56.490

> <W(SA)>
2.270

> <Valence>
4.329

> <Coulomb>
19.841

> <VdW>
1.196

> <VdW6>
-8.514

> <VdW12>
9.710

> <Bond>
0.275

> <Angle>
1.895

> <Pdih>
2.159

> <Idih>
0.000

> <Tether>
0.000

$$$$
VeraChem MOL file


 26 25  0  0  0  0  0  0  0  0999 V2000     
   19.5262   19.2327   19.7864 C   0  0  0  0  0  0  0  0  0  0  0  0
   19.2464   20.0431   19.1010 H   0  0  0  0  0  0  0  0  0  0  0  0
   20.0170   18.4480   19.1963 H   0  0  0  0  0  0  0  0  0  0  0  0
   18.6002   18.8194   20.2051 H   0  0  0  0  0  0  0  0  0  0  0  0
   20.4635   19.7610   20.8956 C   0  0  0  0  0  0  0  0  0  0  0  0
   19.9473   20.5348   21.4795 H   0  0  0  0  0  0  0  0  0  0  0  0
   21.3212   20.2613   20.4248 H   0  0  0  0  0  0  0  0  0  0  0  0
   20.9953   18.6468   21.8325 C   0  0  0  0  0  0  0  0  0  0  0  0
   21.5912   17.9398   21.2390 H   0  0  0  0  0  0  0  0  0  0  0  0
   21.6964   19.0925   22.5507 H   0  0  0  0  0  0  0  0  0  0  0  0
   19.9030   17.8529   22.5988 C   0  0  0  0  0  0  0  0  0  0  0  0
   20.3922   17.1043   23.2361 H   0  0  0  0  0  0  0  0  0  0  0  0
   19.3029   17.2754   21.8831 H   0  0  0  0  0  0  0  0  0  0  0  0
   18.9523   18.7229   23.4635 C   0  0  0  0  0  0  0  0  0  0  0  0
   18.3394   19.3499   22.8034 H   0  0  0  0  0  0  0  0  0  0  0  0
   18.2490   18.0660   23.9922 H   0  0  0  0  0  0  0  0  0  0  0  0
   19.6790   19.6233   24.4869 C   0  0  1  0  0  0  0  0  0  0  0  0
   20.3756   20.2684   23.9433 H   0  0  0  0  0  0  0  0  0  0  0  0
   18.6706   20.5193   25.2231 C   0  0  0  0  0  0  0  0  0  0  0  0
   17.9469   19.9203   25.7900 H   0  0  0  0  0  0  0  0  0  0  0  0
   18.1150   21.1452   24.5137 H   0  0  0  0  0  0  0  0  0  0  0  0
   19.1849   21.1878   25.9245 H   0  0  0  0  0  0  0  0  0  0  0  0
   20.4981   18.8291   25.4671 N   0  3  0  0  0  0  0  0  0  0  0  0
   19.9100   18.2027   26.0229 H   0  0  0  0  0  0  0  0  0  0  0  0
   21.1951   18.2531   24.9877 H   0  0  0  0  0  0  0  0  0  0  0  0
   20.9985   19.4395   26.1193 H   0  0  0  0  0  0  0  0  0  0  0  0
  1  2  1  0  0  0  0
  1  3  1  0  0  0  0
  1  4  1  0  0  0  0
  1  5  1  0  0  0  0
  5  6  1  0  0  0  0
  5  7  1  0  0  0  0
  5  8  1  0  0  0  0
  8  9  1  0  0  0  0
  8 10  1  0  0  0  0
  8 11  1  0  0  0  0
 11 12  1  0  0  0  0
 11 13  1  0  0  0  0
 11 14  1  0  0  0  0
 14 15  1  0  0  0  0
 14 16  1  0  0  0  0
 14 17  1  0  0  0  0
 17 18  1  0  0  0  0
 17 19  1  0  0  0  0
 19 20  1  0  0  0  0
 19 21  1  0  0  0  0
 19 22  1  0  0  0  0
 17 23  1  0  0  0  0
 23 24  1  0  0  0  0
 23 25  1  0  0  0  0
 23 26  1  0  0  0  0
M  END
> <VM2 Rank>
29

> <Conf_Id>
154

> <Probability>
0.72

> <Sum Probability>
97.44

> <Delta G>
1.885

> <G>
25.595

> <E>
-7.749

> <-TS>
33.343

> <U+W>
-29.210

> <U>
24.974

> <W>
-54.183

> <W(PB)>
-56.448

> <W(SA)>
2.265

> <Valence>
3.932

> <Coulomb>
20.396

> <VdW>
0.646

> <VdW6>
-9.633

> <VdW12>
10.279

> <Bond>
0.286

> <Angle>
1.718

> <Pdih>
1.928

> <Idih>
0.000

> <Tether>
0.000

$$$$
VeraChem MOL file


 26 25  0  0  0  0  0  0  0  0999 V2000     
   21.1972   18.1896   20.3635 C   0  0  0  0  0  0  0  0  0  0  0  0
   20.6677   17.3043   19.9884 H   0  0  0  0  0  0  0  0  0  0  0  0
   22.0750   18.3520   19.7248 H   0  0  0  0  0  0  0  0  0  0  0  0
   21.5611   17.9705   21.3749 H   0  0  0  0  0  0  0  0  0  0  0  0
   20.2797   19.4331   20.3488 C   0  0  0  0  0  0  0  0  0  0  0  0
   20.0414   19.6840   19.3058 H   0  0  0  0  0  0  0  0  0  0  0  0
   20.8232   20.2998   20.7480 H   0  0  0  0  0  0  0  0  0  0  0  0
   18.9514   19.2295   21.1217 C   0  0  0  0  0  0  0  0  0  0  0  0
   18.3519   20.1468   21.0428 H   0  0  0  0  0  0  0  0  0  0  0  0
   18.3674   18.4457   20.6199 H   0  0  0  0  0  0  0  0  0  0  0  0
   19.1030   18.8528   22.6183 C   0  0  0  0  0  0  0  0  0  0  0  0
   19.6061   17.8815   22.7036 H   0  0  0  0  0  0  0  0  0  0  0  0
   18.0959   18.7104   23.0307 H   0  0  0  0  0  0  0  0  0  0  0  0
   19.8590   19.9246   23.4504 C   0  0  0  0  0  0  0  0  0  0  0  0
   20.8745   20.0471   23.0543 H   0  0  0  0  0  0  0  0  0  0  0  0
   19.3649   20.8970   23.3252 H   0  0  0  0  0  0  0  0  0  0  0  0
   19.9734   19.6141   24.9617 C   0  0  1  0  0  0  0  0  0  0  0  0
   20.5675   20.4150   25.4128 H   0  0  0  0  0  0  0  0  0  0  0  0
   18.6018   19.6064   25.6593 C   0  0  0  0  0  0  0  0  0  0  0  0
   17.9834   18.7625   25.3318 H   0  0  0  0  0  0  0  0  0  0  0  0
   18.0545   20.5347   25.4539 H   0  0  0  0  0  0  0  0  0  0  0  0
   18.7257   19.5276   26.7463 H   0  0  0  0  0  0  0  0  0  0  0  0
   20.7226   18.3379   25.2304 N   0  3  0  0  0  0  0  0  0  0  0  0
   20.8428   18.1793   26.2348 H   0  0  0  0  0  0  0  0  0  0  0  0
   20.2260   17.5289   24.8493 H   0  0  0  0  0  0  0  0  0  0  0  0
   21.6557   18.3545   24.8095 H   0  0  0  0  0  0  0  0  0  0  0  0
  1  2  1  0  0  0  0
  1  3  1  0  0  0  0
  1  4  1  0  0  0  0
  1  5  1  0  0  0  0
  5  6  1  0  0  0  0
  5  7  1  0  0  0  0
  5  8  1  0  0  0  0
  8  9  1  0  0  0  0
  8 10  1  0  0  0  0
  8 11  1  0  0  0  0
 11 12  1  0  0  0  0
 11 13  1  0  0  0  0
 11 14  1  0  0  0  0
 14 15  1  0  0  0  0
 14 16  1  0  0  0  0
 14 17  1  0  0  0  0
 17 18  1  0  0  0  0
 17 19  1  0  0  0  0
 19 20  1  0  0  0  0
 19 21  1  0  0  0  0
 19 22  1  0  0  0  0
 17 23  1  0  0  0  0
 23 24  1  0  0  0  0
 23 25  1  0  0  0  0
 23 26  1  0  0  0  0
M  END
> <VM2 Rank>
30

> <Conf_Id>
443

> <Probability>
0.49

> <Sum Probability>
97.94

> <Delta G>
2.111

> <G>
25.821

> <E>
-7.289

> <-TS>
33.110

> <U+W>
-28.751

> <U>
25.589

> <W>
-54.340

> <W(PB)>
-56.600

> <W(SA)>
2.260

> <Valence>
4.268

> <Coulomb>
20.216

> <VdW>
1.104

> <VdW6>
-9.052

> <VdW12>
10.157

> <Bond>
0.298

> <Angle>
1.891

> <Pdih>
2.079

> <Idih>
0.000

> <Tether>
0.000

$$$$
VeraChem MOL file


 26 25  0  0  0  0  0  0  0  0999 V2000     
   20.5370   18.2093   19.9950 C   0  0  0  0  0  0  0  0  0  0  0  0
   21.4561   17.7929   19.5629 H   0  0  0  0  0  0  0  0  0  0  0  0
   20.0028   17.3885   20.4894 H   0  0  0  0  0  0  0  0  0  0  0  0
   19.9141   18.5771   19.1694 H   0  0  0  0  0  0  0  0  0  0  0  0
   20.8717   19.3462   20.9867 C   0  0  0  0  0  0  0  0  0  0  0  0
   21.4985   20.0891   20.4741 H   0  0  0  0  0  0  0  0  0  0  0  0
   21.4838   18.9522   21.8089 H   0  0  0  0  0  0  0  0  0  0  0  0
   19.6163   20.0617   21.5470 C   0  0  0  0  0  0  0  0  0  0  0  0
   19.9378   20.8905   22.1918 H   0  0  0  0  0  0  0  0  0  0  0  0
   19.0739   20.5297   20.7140 H   0  0  0  0  0  0  0  0  0  0  0  0
   18.6325   19.1506   22.3293 C   0  0  0  0  0  0  0  0  0  0  0  0
   18.1871   18.4197   21.6414 H   0  0  0  0  0  0  0  0  0  0  0  0
   17.7915   19.7608   22.6844 H   0  0  0  0  0  0  0  0  0  0  0  0
   19.2622   18.3919   23.5282 C   0  0  0  0  0  0  0  0  0  0  0  0
   18.4762   17.8243   24.0436 H   0  0  0  0  0  0  0  0  0  0  0  0
   19.9657   17.6437   23.1413 H   0  0  0  0  0  0  0  0  0  0  0  0
   19.9986   19.2887   24.5506 C   0  0  1  0  0  0  0  0  0  0  0  0
   20.7639   19.8610   24.0179 H   0  0  0  0  0  0  0  0  0  0  0  0
   19.0438   20.2776   25.2427 C   0  0  0  0  0  0  0  0  0  0  0  0
   18.2290   19.7502   25.7541 H   0  0  0  0  0  0  0  0  0  0  0  0
   18.6017   20.9748   24.5215 H   0  0  0  0  0  0  0  0  0  0  0  0
   19.5814   20.8773   25.9874 H   0  0  0  0  0  0  0  0  0  0  0  0
   20.7259   18.4619   25.5744 N   0  3  0  0  0  0  0  0  0  0  0  0
   20.0772   17.8932   26.1251 H   0  0  0  0  0  0  0  0  0  0  0  0
   21.3983   17.8253   25.1374 H   0  0  0  0  0  0  0  0  0  0  0  0
   21.2466   19.0514   26.2300 H   0  0  0  0  0  0  0  0  0  0  0  0
  1  2  1  0  0  0  0
  1  3  1  0  0  0  0
  1  4  1  0  0  0  0
  1  5  1  0  0  0  0
  5  6  1  0  0  0  0
  5  7  1  0  0  0  0
  5  8  1  0  0  0  0
  8  9  1  0  0  0  0
  8 10  1  0  0  0  0
  8 11  1  0  0  0  0
 11 12  1  0  0  0  0
 11 13  1  0  0  0  0
 11 14  1  0  0  0  0
 14 15  1  0  0  0  0
 14 16  1  0  0  0  0
 14 17  1  0  0  0  0
 17 18  1  0  0  0  0
 17 19  1  0  0  0  0
 19 20  1  0  0  0  0
 19 21  1  0  0  0  0
 19 22  1  0  0  0  0
 17 23  1  0  0  0  0
 23 24  1  0  0  0  0
 23 25  1  0  0  0  0
 23 26  1  0  0  0  0
M  END
> <VM2 Rank>
31

> <Conf_Id>
141

> <Probability>
0.40

> <Sum Probability>
98.34

> <Delta G>
2.236

> <G>
25.946

> <E>
-7.505

> <-TS>
33.451

> <U+W>
-28.966

> <U>
25.506

> <W>
-54.473

> <W(PB)>
-56.692

> <W(SA)>
2.220

> <Valence>
4.414

> <Coulomb>
20.363

> <VdW>
0.729

> <VdW6>
-9.839

> <VdW12>
10.567

> <Bond>
0.296

> <Angle>
2.006

> <Pdih>
2.112

> <Idih>
0.000

> <Tether>
0.000

$$$$
VeraChem MOL file


 26 25  0  0  0  0  0  0  0  0999 V2000     
   20.7148   17.8853   19.4382 C   0  0  0  0  0  0  0  0  0  0  0  0
   19.7254   17.4925   19.1699 H   0  0  0  0  0  0  0  0  0  0  0  0
   21.2552   18.1015   18.5074 H   0  0  0  0  0  0  0  0  0  0  0  0
   21.2629   17.0970   19.9705 H   0  0  0  0  0  0  0  0  0  0  0  0
   20.5907   19.1571   20.3039 C   0  0  0  0  0  0  0  0  0  0  0  0
   20.0704   19.9378   19.7314 H   0  0  0  0  0  0  0  0  0  0  0  0
   21.5945   19.5446   20.5282 H   0  0  0  0  0  0  0  0  0  0  0  0
   19.8316   18.8812   21.6207 C   0  0  0  0  0  0  0  0  0  0  0  0
   18.8287   18.4977   21.3873 H   0  0  0  0  0  0  0  0  0  0  0  0
   20.3513   18.0888   22.1701 H   0  0  0  0  0  0  0  0  0  0  0  0
   19.7055   20.1590   22.4868 C   0  0  0  0  0  0  0  0  0  0  0  0
   19.2014   20.9283   21.8853 H   0  0  0  0  0  0  0  0  0  0  0  0
   20.7003   20.5625   22.7217 H   0  0  0  0  0  0  0  0  0  0  0  0
   18.8925   19.9601   23.7934 C   0  0  0  0  0  0  0  0  0  0  0  0
   18.4401   20.9266   24.0529 H   0  0  0  0  0  0  0  0  0  0  0  0
   18.0538   19.2728   23.6204 H   0  0  0  0  0  0  0  0  0  0  0  0
   19.7304   19.4936   25.0073 C   0  0  1  0  0  0  0  0  0  0  0  0
   20.5567   20.1986   25.1413 H   0  0  0  0  0  0  0  0  0  0  0  0
   18.8724   19.5141   26.2828 C   0  0  0  0  0  0  0  0  0  0  0  0
   18.0251   18.8215   26.2023 H   0  0  0  0  0  0  0  0  0  0  0  0
   18.4752   20.5194   26.4705 H   0  0  0  0  0  0  0  0  0  0  0  0
   19.4686   19.2245   27.1569 H   0  0  0  0  0  0  0  0  0  0  0  0
   20.3500   18.1375   24.8209 N   0  3  0  0  0  0  0  0  0  0  0  0
   20.9015   17.8630   25.6387 H   0  0  0  0  0  0  0  0  0  0  0  0
   19.6365   17.4185   24.6753 H   0  0  0  0  0  0  0  0  0  0  0  0
   20.9753   18.1258   24.0112 H   0  0  0  0  0  0  0  0  0  0  0  0
  1  2  1  0  0  0  0
  1  3  1  0  0  0  0
  1  4  1  0  0  0  0
  1  5  1  0  0  0  0
  5  6  1  0  0  0  0
  5  7  1  0  0  0  0
  5  8  1  0  0  0  0
  8  9  1  0  0  0  0
  8 10  1  0  0  0  0
  8 11  1  0  0  0  0
 11 12  1  0  0  0  0
 11 13  1  0  0  0  0
 11 14  1  0  0  0  0
 14 15  1  0  0  0  0
 14 16  1  0  0  0  0
 14 17  1  0  0  0  0
 17 18  1  0  0  0  0
 17 19  1  0  0  0  0
 19 20  1  0  0  0  0
 19 21  1  0  0  0  0
 19 22  1  0  0  0  0
 17 23  1  0  0  0  0
 23 24  1  0  0  0  0
 23 25  1  0  0  0  0
 23 26  1  0  0  0  0
M  END
> <VM2 Rank>
32

> <Conf_Id>
1097

> <Probability>
0.19

> <Sum Probability>
98.52

> <Delta G>
2.696

> <G>
26.406

> <E>
-5.958

> <-TS>
32.363

> <U+W>
-27.419

> <U>
26.493

> <W>
-53.912

> <W(PB)>
-56.219

> <W(SA)>
2.307

> <Valence>
4.731

> <Coulomb>
20.826

> <VdW>
0.936

> <VdW6>
-7.662

> <VdW12>
8.597

> <Bond>
0.241

> <Angle>
1.433

> <Pdih>
3.057

> <Idih>
0.000

> <Tether>
0.000

$$$$
VeraChem MOL file


 26 25  0  0  0  0  0  0  0  0999 V2000     
   21.3629   19.2461   19.9301 C   0  0  0  0  0  0  0  0  0  0  0  0
   22.2224   18.9104   20.5248 H   0  0  0  0  0  0  0  0  0  0  0  0
   21.6446   19.1870   18.8708 H   0  0  0  0  0  0  0  0  0  0  0  0
   21.1745   20.3015   20.1626 H   0  0  0  0  0  0  0  0  0  0  0  0
   20.1186   18.3724   20.2081 C   0  0  0  0  0  0  0  0  0  0  0  0
   20.3159   17.3514   19.8525 H   0  0  0  0  0  0  0  0  0  0  0  0
   19.2676   18.7432   19.6198 H   0  0  0  0  0  0  0  0  0  0  0  0
   19.7345   18.3117   21.7061 C   0  0  0  0  0  0  0  0  0  0  0  0
   18.9141   17.5904   21.8238 H   0  0  0  0  0  0  0  0  0  0  0  0
   20.5830   17.9097   22.2701 H   0  0  0  0  0  0  0  0  0  0  0  0
   19.2892   19.6830   22.2780 C   0  0  0  0  0  0  0  0  0  0  0  0
   18.5152   20.0925   21.6142 H   0  0  0  0  0  0  0  0  0  0  0  0
   20.1197   20.4009   22.2558 H   0  0  0  0  0  0  0  0  0  0  0  0
   18.7014   19.6133   23.7125 C   0  0  0  0  0  0  0  0  0  0  0  0
   18.0341   20.4766   23.8370 H   0  0  0  0  0  0  0  0  0  0  0  0
   18.0655   18.7250   23.8225 H   0  0  0  0  0  0  0  0  0  0  0  0
   19.7534   19.6659   24.8456 C   0  0  1  0  0  0  0  0  0  0  0  0
   20.3843   20.5455   24.6846 H   0  0  0  0  0  0  0  0  0  0  0  0
   19.0572   19.8193   26.2078 C   0  0  0  0  0  0  0  0  0  0  0  0
   18.4424   20.7277   26.2325 H   0  0  0  0  0  0  0  0  0  0  0  0
   19.7957   19.8969   27.0152 H   0  0  0  0  0  0  0  0  0  0  0  0
   18.4074   18.9611   26.4202 H   0  0  0  0  0  0  0  0  0  0  0  0
   20.6708   18.4762   24.8658 N   0  3  0  0  0  0  0  0  0  0  0  0
   21.1952   18.4001   23.9910 H   0  0  0  0  0  0  0  0  0  0  0  0
   21.3521   18.5427   25.6273 H   0  0  0  0  0  0  0  0  0  0  0  0
   20.1492   17.6053   24.9945 H   0  0  0  0  0  0  0  0  0  0  0  0
  1  2  1  0  0  0  0
  1  3  1  0  0  0  0
  1  4  1  0  0  0  0
  1  5  1  0  0  0  0
  5  6  1  0  0  0  0
  5  7  1  0  0  0  0
  5  8  1  0  0  0  0
  8  9  1  0  0  0  0
  8 10  1  0  0  0  0
  8 11  1  0  0  0  0
 11 12  1  0  0  0  0
 11 13  1  0  0  0  0
 11 14  1  0  0  0  0
 14 15  1  0  0  0  0
 14 16  1  0  0  0  0
 14 17  1  0  0  0  0
 17 18  1  0  0  0  0
 17 19  1  0  0  0  0
 19 20  1  0  0  0  0
 19 21  1  0  0  0  0
 19 22  1  0  0  0  0
 17 23  1  0  0  0  0
 23 24  1  0  0  0  0
 23 25  1  0  0  0  0
 23 26  1  0  0  0  0
M  END
> <VM2 Rank>
33

> <Conf_Id>
243

> <Probability>
0.12

> <Sum Probability>
98.64

> <Delta G>
2.969

> <G>
26.679

> <E>
-5.409

> <-TS>
32.087

> <U+W>
-26.870

> <U>
27.054

> <W>
-53.925

> <W(PB)>
-56.216

> <W(SA)>
2.291

> <Valence>
5.137

> <Coulomb>
20.886

> <VdW>
1.031

> <VdW6>
-8.326

> <VdW12>
9.357

> <Bond>
0.283

> <Angle>
1.710

> <Pdih>
3.144

> <Idih>
0.000

> <Tether>
0.000

$$$$
VeraChem MOL file


 26 25  0  0  0  0  0  0  0  0999 V2000     
   21.1536   18.0709   19.5808 C   0  0  0  0  0  0  0  0  0  0  0  0
   22.1283   17.9833   20.0783 H   0  0  0  0  0  0  0  0  0  0  0  0
   20.6533   17.0952   19.6342 H   0  0  0  0  0  0  0  0  0  0  0  0
   21.3351   18.2988   18.5224 H   0  0  0  0  0  0  0  0  0  0  0  0
   20.2929   19.1724   20.2352 C   0  0  0  0  0  0  0  0  0  0  0  0
   19.3410   19.2601   19.6930 H   0  0  0  0  0  0  0  0  0  0  0  0
   20.8038   20.1407   20.1376 H   0  0  0  0  0  0  0  0  0  0  0  0
   20.0201   18.8746   21.7262 C   0  0  0  0  0  0  0  0  0  0  0  0
   19.5017   17.9098   21.8156 H   0  0  0  0  0  0  0  0  0  0  0  0
   20.9825   18.7823   22.2441 H   0  0  0  0  0  0  0  0  0  0  0  0
   19.1714   19.9872   22.3866 C   0  0  0  0  0  0  0  0  0  0  0  0
   18.2977   20.1882   21.7512 H   0  0  0  0  0  0  0  0  0  0  0  0
   19.7493   20.9214   22.4132 H   0  0  0  0  0  0  0  0  0  0  0  0
   18.6572   19.6569   23.8127 C   0  0  0  0  0  0  0  0  0  0  0  0
   17.9872   20.4746   24.1103 H   0  0  0  0  0  0  0  0  0  0  0  0
   18.0341   18.7531   23.7910 H   0  0  0  0  0  0  0  0  0  0  0  0
   19.7630   19.5100   24.8850 C   0  0  1  0  0  0  0  0  0  0  0  0
   20.5272   20.2711   24.6995 H   0  0  0  0  0  0  0  0  0  0  0  0
   19.1815   19.7445   26.2892 C   0  0  0  0  0  0  0  0  0  0  0  0
   18.7496   20.7498   26.3707 H   0  0  0  0  0  0  0  0  0  0  0  0
   19.9639   19.6581   27.0533 H   0  0  0  0  0  0  0  0  0  0  0  0
   18.3954   19.0147   26.5202 H   0  0  0  0  0  0  0  0  0  0  0  0
   20.4482   18.1714   24.8383 N   0  3  0  0  0  0  0  0  0  0  0  0
   21.2042   18.1143   25.5266 H   0  0  0  0  0  0  0  0  0  0  0  0
   19.7932   17.4116   25.0404 H   0  0  0  0  0  0  0  0  0  0  0  0
   20.8547   17.9905   23.9178 H   0  0  0  0  0  0  0  0  0  0  0  0
  1  2  1  0  0  0  0
  1  3  1  0  0  0  0
  1  4  1  0  0  0  0
  1  5  1  0  0  0  0
  5  6  1  0  0  0  0
  5  7  1  0  0  0  0
  5  8  1  0  0  0  0
  8  9  1  0  0  0  0
  8 10  1  0  0  0  0
  8 11  1  0  0  0  0
 11 12  1  0  0  0  0
 11 13  1  0  0  0  0
 11 14  1  0  0  0  0
 14 15  1  0  0  0  0
 14 16  1  0  0  0  0
 14 17  1  0  0  0  0
 17 18  1  0  0  0  0
 17 19  1  0  0  0  0
 19 20  1  0  0  0  0
 19 21  1  0  0  0  0
 19 22  1  0  0  0  0
 17 23  1  0  0  0  0
 23 24  1  0  0  0  0
 23 25  1  0  0  0  0
 23 26  1  0  0  0  0
M  END
> <VM2 Rank>
34

> <Conf_Id>
997

> <Probability>
0.11

> <Sum Probability>
98.75

> <Delta G>
3.004

> <G>
26.714

> <E>
-5.843

> <-TS>
32.556

> <U+W>
-27.304

> <U>
26.574

> <W>
-53.879

> <W(PB)>
-56.194

> <W(SA)>
2.316

> <Valence>
4.532

> <Coulomb>
21.136

> <VdW>
0.906

> <VdW6>
-7.878

> <VdW12>
8.784

> <Bond>
0.227

> <Angle>
1.591

> <Pdih>
2.714

> <Idih>
0.000

> <Tether>
0.000

$$$$
VeraChem MOL file


 26 25  0  0  0  0  0  0  0  0999 V2000     
   20.7412   19.7891   19.6931 C   0  0  0  0  0  0  0  0  0  0  0  0
   19.8037   20.0290   19.1746 H   0  0  0  0  0  0  0  0  0  0  0  0
   21.4068   20.6577   19.6052 H   0  0  0  0  0  0  0  0  0  0  0  0
   21.2154   18.9479   19.1709 H   0  0  0  0  0  0  0  0  0  0  0  0
   20.4831   19.4484   21.1762 C   0  0  0  0  0  0  0  0  0  0  0  0
   20.0466   20.3284   21.6659 H   0  0  0  0  0  0  0  0  0  0  0  0
   21.4402   19.2376   21.6732 H   0  0  0  0  0  0  0  0  0  0  0  0
   19.5336   18.2376   21.3253 C   0  0  0  0  0  0  0  0  0  0  0  0
   18.5408   18.5038   20.9370 H   0  0  0  0  0  0  0  0  0  0  0  0
   19.8988   17.4192   20.6896 H   0  0  0  0  0  0  0  0  0  0  0  0
   19.3950   17.6971   22.7723 C   0  0  0  0  0  0  0  0  0  0  0  0
   20.3628   17.3175   23.1242 H   0  0  0  0  0  0  0  0  0  0  0  0
   18.7350   16.8195   22.7318 H   0  0  0  0  0  0  0  0  0  0  0  0
   18.7905   18.7008   23.7917 C   0  0  0  0  0  0  0  0  0  0  0  0
   17.9973   19.2789   23.2993 H   0  0  0  0  0  0  0  0  0  0  0  0
   18.2963   18.1346   24.5924 H   0  0  0  0  0  0  0  0  0  0  0  0
   19.8153   19.6612   24.4392 C   0  0  1  0  0  0  0  0  0  0  0  0
   20.3657   20.1782   23.6502 H   0  0  0  0  0  0  0  0  0  0  0  0
   19.0911   20.7193   25.2867 C   0  0  0  0  0  0  0  0  0  0  0  0
   18.3910   21.2985   24.6718 H   0  0  0  0  0  0  0  0  0  0  0  0
   19.8088   21.4234   25.7255 H   0  0  0  0  0  0  0  0  0  0  0  0
   18.5248   20.2547   26.1036 H   0  0  0  0  0  0  0  0  0  0  0  0
   20.8381   18.9344   25.2695 N   0  3  0  0  0  0  0  0  0  0  0  0
   21.3605   18.2549   24.7105 H   0  0  0  0  0  0  0  0  0  0  0  0
   21.5177   19.5821   25.6780 H   0  0  0  0  0  0  0  0  0  0  0  0
   20.3988   18.4255   26.0411 H   0  0  0  0  0  0  0  0  0  0  0  0
  1  2  1  0  0  0  0
  1  3  1  0  0  0  0
  1  4  1  0  0  0  0
  1  5  1  0  0  0  0
  5  6  1  0  0  0  0
  5  7  1  0  0  0  0
  5  8  1  0  0  0  0
  8  9  1  0  0  0  0
  8 10  1  0  0  0  0
  8 11  1  0  0  0  0
 11 12  1  0  0  0  0
 11 13  1  0  0  0  0
 11 14  1  0  0  0  0
 14 15  1  0  0  0  0
 14 16  1  0  0  0  0
 14 17  1  0  0  0  0
 17 18  1  0  0  0  0
 17 19  1  0  0  0  0
 19 20  1  0  0  0  0
 19 21  1  0  0  0  0
 19 22  1  0  0  0  0
 17 23  1  0  0  0  0
 23 24  1  0  0  0  0
 23 25  1  0  0  0  0
 23 26  1  0  0  0  0
M  END
> <VM2 Rank>
35

> <Conf_Id>
1024

> <Probability>
0.07

> <Sum Probability>
98.82

> <Delta G>
3.252

> <G>
26.961

> <E>
-5.912

> <-TS>
32.873

> <U+W>
-27.374

> <U>
26.753

> <W>
-54.126

> <W(PB)>
-56.393

> <W(SA)>
2.267

> <Valence>
5.252

> <Coulomb>
20.764

> <VdW>
0.737

> <VdW6>
-8.685

> <VdW12>
9.422

> <Bond>
0.256

> <Angle>
1.802

> <Pdih>
3.193

> <Idih>
0.000

> <Tether>
0.000

$$$$
VeraChem MOL file


 26 25  0  0  0  0  0  0  0  0999 V2000     
   20.3162   17.7940   19.6628 C   0  0  0  0  0  0  0  0  0  0  0  0
   19.7737   16.9280   20.0638 H   0  0  0  0  0  0  0  0  0  0  0  0
   20.0964   17.8614   18.5894 H   0  0  0  0  0  0  0  0  0  0  0  0
   21.3920   17.6059   19.7751 H   0  0  0  0  0  0  0  0  0  0  0  0
   19.9017   19.0929   20.3861 C   0  0  0  0  0  0  0  0  0  0  0  0
   18.8286   19.2713   20.2291 H   0  0  0  0  0  0  0  0  0  0  0  0
   20.4335   19.9442   19.9385 H   0  0  0  0  0  0  0  0  0  0  0  0
   20.2032   19.0255   21.8996 C   0  0  0  0  0  0  0  0  0  0  0  0
   19.6716   18.1651   22.3234 H   0  0  0  0  0  0  0  0  0  0  0  0
   21.2783   18.8555   22.0497 H   0  0  0  0  0  0  0  0  0  0  0  0
   19.7736   20.3213   22.6278 C   0  0  0  0  0  0  0  0  0  0  0  0
   18.6837   20.4390   22.5608 H   0  0  0  0  0  0  0  0  0  0  0  0
   20.1978   21.1815   22.0918 H   0  0  0  0  0  0  0  0  0  0  0  0
   20.2304   20.4160   24.1111 C   0  0  0  0  0  0  0  0  0  0  0  0
   21.3274   20.4228   24.1528 H   0  0  0  0  0  0  0  0  0  0  0  0
   19.9193   21.3971   24.4935 H   0  0  0  0  0  0  0  0  0  0  0  0
   19.6967   19.3420   25.0933 C   0  0  1  0  0  0  0  0  0  0  0  0
   19.9342   19.6924   26.1025 H   0  0  0  0  0  0  0  0  0  0  0  0
   18.1688   19.1787   25.0132 C   0  0  0  0  0  0  0  0  0  0  0  0
   17.8101   18.5225   25.8156 H   0  0  0  0  0  0  0  0  0  0  0  0
   17.8577   18.7405   24.0574 H   0  0  0  0  0  0  0  0  0  0  0  0
   17.6680   20.1481   25.1270 H   0  0  0  0  0  0  0  0  0  0  0  0
   20.3975   18.0177   24.9602 N   0  3  0  0  0  0  0  0  0  0  0  0
   20.0652   17.3477   25.6596 H   0  0  0  0  0  0  0  0  0  0  0  0
   20.2413   17.6048   24.0385 H   0  0  0  0  0  0  0  0  0  0  0  0
   21.4088   18.1149   25.0876 H   0  0  0  0  0  0  0  0  0  0  0  0
  1  2  1  0  0  0  0
  1  3  1  0  0  0  0
  1  4  1  0  0  0  0
  1  5  1  0  0  0  0
  5  6  1  0  0  0  0
  5  7  1  0  0  0  0
  5  8  1  0  0  0  0
  8  9  1  0  0  0  0
  8 10  1  0  0  0  0
  8 11  1  0  0  0  0
 11 12  1  0  0  0  0
 11 13  1  0  0  0  0
 11 14  1  0  0  0  0
 14 15  1  0  0  0  0
 14 16  1  0  0  0  0
 14 17  1  0  0  0  0
 17 18  1  0  0  0  0
 17 19  1  0  0  0  0
 19 20  1  0  0  0  0
 19 21  1  0  0  0  0
 19 22  1  0  0  0  0
 17 23  1  0  0  0  0
 23 24  1  0  0  0  0
 23 25  1  0  0  0  0
 23 26  1  0  0  0  0
M  END
> <VM2 Rank>
36

> <Conf_Id>
207

> <Probability>
0.07

> <Sum Probability>
98.89

> <Delta G>
3.302

> <G>
27.012

> <E>
-6.122

> <-TS>
33.134

> <U+W>
-27.584

> <U>
26.681

> <W>
-54.265

> <W(PB)>
-56.534

> <W(SA)>
2.269

> <Valence>
4.633

> <Coulomb>
21.285

> <VdW>
0.763

> <VdW6>
-8.907

> <VdW12>
9.671

> <Bond>
0.277

> <Angle>
2.161

> <Pdih>
2.194

> <Idih>
0.000

> <Tether>
0.000

$$$$
VeraChem MOL file


 26 25  0  0  0  0  0  0  0  0999 V2000     
   19.3701   18.9548   19.1197 C   0  0  0  0  0  0  0  0  0  0  0  0
   19.3612   17.8649   18.9885 H   0  0  0  0  0  0  0  0  0  0  0  0
   18.3445   19.2818   19.3351 H   0  0  0  0  0  0  0  0  0  0  0  0
   19.6745   19.4064   18.1665 H   0  0  0  0  0  0  0  0  0  0  0  0
   20.3340   19.3695   20.2515 C   0  0  0  0  0  0  0  0  0  0  0  0
   20.3466   20.4652   20.3361 H   0  0  0  0  0  0  0  0  0  0  0  0
   21.3560   19.0599   19.9916 H   0  0  0  0  0  0  0  0  0  0  0  0
   19.9282   18.7468   21.6056 C   0  0  0  0  0  0  0  0  0  0  0  0
   18.9027   19.0494   21.8493 H   0  0  0  0  0  0  0  0  0  0  0  0
   19.9170   17.6519   21.5131 H   0  0  0  0  0  0  0  0  0  0  0  0
   20.8997   19.1558   22.7401 C   0  0  0  0  0  0  0  0  0  0  0  0
   20.9766   20.2501   22.8052 H   0  0  0  0  0  0  0  0  0  0  0  0
   21.9041   18.7975   22.4748 H   0  0  0  0  0  0  0  0  0  0  0  0
   20.5168   18.5653   24.1232 C   0  0  0  0  0  0  0  0  0  0  0  0
   19.9658   17.6240   23.9966 H   0  0  0  0  0  0  0  0  0  0  0  0
   21.4471   18.2990   24.6423 H   0  0  0  0  0  0  0  0  0  0  0  0
   19.7288   19.5263   25.0460 C   0  0  1  0  0  0  0  0  0  0  0  0
   20.3297   20.4298   25.1884 H   0  0  0  0  0  0  0  0  0  0  0  0
   18.3708   19.9426   24.4560 C   0  0  0  0  0  0  0  0  0  0  0  0
   17.7609   19.0662   24.2040 H   0  0  0  0  0  0  0  0  0  0  0  0
   18.5039   20.5477   23.5518 H   0  0  0  0  0  0  0  0  0  0  0  0
   17.8088   20.5542   25.1724 H   0  0  0  0  0  0  0  0  0  0  0  0
   19.5396   18.9268   26.4119 N   0  3  0  0  0  0  0  0  0  0  0  0
   20.4353   18.6860   26.8459 H   0  0  0  0  0  0  0  0  0  0  0  0
   19.0613   19.5764   27.0426 H   0  0  0  0  0  0  0  0  0  0  0  0
   18.9781   18.0721   26.3711 H   0  0  0  0  0  0  0  0  0  0  0  0
  1  2  1  0  0  0  0
  1  3  1  0  0  0  0
  1  4  1  0  0  0  0
  1  5  1  0  0  0  0
  5  6  1  0  0  0  0
  5  7  1  0  0  0  0
  5  8  1  0  0  0  0
  8  9  1  0  0  0  0
  8 10  1  0  0  0  0
  8 11  1  0  0  0  0
 11 12  1  0  0  0  0
 11 13  1  0  0  0  0
 11 14  1  0  0  0  0
 14 15  1  0  0  0  0
 14 16  1  0  0  0  0
 14 17  1  0  0  0  0
 17 18  1  0  0  0  0
 17 19  1  0  0  0  0
 19 20  1  0  0  0  0
 19 21  1  0  0  0  0
 19 22  1  0  0  0  0
 17 23  1  0  0  0  0
 23 24  1  0  0  0  0
 23 25  1  0  0  0  0
 23 26  1  0  0  0  0
M  END
> <VM2 Rank>
37

> <Conf_Id>
172

> <Probability>
0.06

> <Sum Probability>
98.95

> <Delta G>
3.325

> <G>
27.035

> <E>
-5.808

> <-TS>
32.843

> <U+W>
-27.270

> <U>
26.589

> <W>
-53.859

> <W(PB)>
-56.174

> <W(SA)>
2.315

> <Valence>
5.830

> <Coulomb>
19.752

> <VdW>
1.008

> <VdW6>
-7.925

> <VdW12>
8.933

> <Bond>
0.235

> <Angle>
1.652

> <Pdih>
3.943

> <Idih>
0.000

> <Tether>
0.000

$$$$
VeraChem MOL file


 26 25  0  0  0  0  0  0  0  0999 V2000     
   19.5279   18.4521   19.2494 C   0  0  0  0  0  0  0  0  0  0  0  0
   18.5632   17.9969   19.5088 H   0  0  0  0  0  0  0  0  0  0  0  0
   19.3346   19.4501   18.8347 H   0  0  0  0  0  0  0  0  0  0  0  0
   19.9867   17.8425   18.4601 H   0  0  0  0  0  0  0  0  0  0  0  0
   20.4529   18.5332   20.4823 C   0  0  0  0  0  0  0  0  0  0  0  0
   21.4208   18.9599   20.1842 H   0  0  0  0  0  0  0  0  0  0  0  0
   20.6545   17.5186   20.8536 H   0  0  0  0  0  0  0  0  0  0  0  0
   19.8306   19.3869   21.6093 C   0  0  0  0  0  0  0  0  0  0  0  0
   19.6313   20.3988   21.2303 H   0  0  0  0  0  0  0  0  0  0  0  0
   18.8598   18.9608   21.8885 H   0  0  0  0  0  0  0  0  0  0  0  0
   20.7612   19.4741   22.8439 C   0  0  0  0  0  0  0  0  0  0  0  0
   21.7094   19.9269   22.5225 H   0  0  0  0  0  0  0  0  0  0  0  0
   21.0146   18.4672   23.1999 H   0  0  0  0  0  0  0  0  0  0  0  0
   20.1789   20.3342   24.0005 C   0  0  0  0  0  0  0  0  0  0  0  0
   21.0075   20.8709   24.4811 H   0  0  0  0  0  0  0  0  0  0  0  0
   19.5267   21.1174   23.5921 H   0  0  0  0  0  0  0  0  0  0  0  0
   19.4222   19.5618   25.1097 C   0  0  1  0  0  0  0  0  0  0  0  0
   19.0701   20.3034   25.8335 H   0  0  0  0  0  0  0  0  0  0  0  0
   18.1889   18.8109   24.5824 C   0  0  0  0  0  0  0  0  0  0  0  0
   17.5400   19.4817   24.0061 H   0  0  0  0  0  0  0  0  0  0  0  0
   17.5981   18.4124   25.4163 H   0  0  0  0  0  0  0  0  0  0  0  0
   18.4750   17.9669   23.9437 H   0  0  0  0  0  0  0  0  0  0  0  0
   20.3254   18.6348   25.8766 N   0  3  0  0  0  0  0  0  0  0  0  0
   19.8277   18.1813   26.6479 H   0  0  0  0  0  0  0  0  0  0  0  0
   20.6982   17.8959   25.2756 H   0  0  0  0  0  0  0  0  0  0  0  0
   21.1224   19.1353   26.2800 H   0  0  0  0  0  0  0  0  0  0  0  0
  1  2  1  0  0  0  0
  1  3  1  0  0  0  0
  1  4  1  0  0  0  0
  1  5  1  0  0  0  0
  5  6  1  0  0  0  0
  5  7  1  0  0  0  0
  5  8  1  0  0  0  0
  8  9  1  0  0  0  0
  8 10  1  0  0  0  0
  8 11  1  0  0  0  0
 11 12  1  0  0  0  0
 11 13  1  0  0  0  0
 11 14  1  0  0  0  0
 14 15  1  0  0  0  0
 14 16  1  0  0  0  0
 14 17  1  0  0  0  0
 17 18  1  0  0  0  0
 17 19  1  0  0  0  0
 19 20  1  0  0  0  0
 19 21  1  0  0  0  0
 19 22  1  0  0  0  0
 17 23  1  0  0  0  0
 23 24  1  0  0  0  0
 23 25  1  0  0  0  0
 23 26  1  0  0  0  0
M  END
> <VM2 Rank>
38

> <Conf_Id>
808

> <Probability>
0.06

> <Sum Probability>
99.02

> <Delta G>
3.340

> <G>
27.049

> <E>
-5.858

> <-TS>
32.907

> <U+W>
-27.320

> <U>
26.848

> <W>
-54.168

> <W(PB)>
-56.427

> <W(SA)>
2.259

> <Valence>
5.824

> <Coulomb>
20.057

> <VdW>
0.968

> <VdW6>
-8.367

> <VdW12>
9.334

> <Bond>
0.267

> <Angle>
1.799

> <Pdih>
3.758

> <Idih>
0.000

> <Tether>
0.000

$$$$
VeraChem MOL file


 26 25  0  0  0  0  0  0  0  0999 V2000     
   18.9946   18.4486   20.0746 C   0  0  0  0  0  0  0  0  0  0  0  0
   18.7427   19.2985   19.4271 H   0  0  0  0  0  0  0  0  0  0  0  0
   18.7567   17.5293   19.5239 H   0  0  0  0  0  0  0  0  0  0  0  0
   18.3400   18.4874   20.9520 H   0  0  0  0  0  0  0  0  0  0  0  0
   20.4917   18.4744   20.4615 C   0  0  0  0  0  0  0  0  0  0  0  0
   21.0806   18.3975   19.5367 H   0  0  0  0  0  0  0  0  0  0  0  0
   20.7478   17.5870   21.0570 H   0  0  0  0  0  0  0  0  0  0  0  0
   20.9148   19.7656   21.2085 C   0  0  0  0  0  0  0  0  0  0  0  0
   21.9421   20.0129   20.9070 H   0  0  0  0  0  0  0  0  0  0  0  0
   20.2986   20.6140   20.8803 H   0  0  0  0  0  0  0  0  0  0  0  0
   20.8971   19.6586   22.7553 C   0  0  0  0  0  0  0  0  0  0  0  0
   21.2853   20.5998   23.1689 H   0  0  0  0  0  0  0  0  0  0  0  0
   21.5977   18.8727   23.0676 H   0  0  0  0  0  0  0  0  0  0  0  0
   19.4972   19.3850   23.3583 C   0  0  0  0  0  0  0  0  0  0  0  0
   18.7772   20.0905   22.9228 H   0  0  0  0  0  0  0  0  0  0  0  0
   19.1643   18.3760   23.0850 H   0  0  0  0  0  0  0  0  0  0  0  0
   19.4684   19.5281   24.8953 C   0  0  1  0  0  0  0  0  0  0  0  0
   19.8192   20.5323   25.1527 H   0  0  0  0  0  0  0  0  0  0  0  0
   18.0324   19.3696   25.4199 C   0  0  0  0  0  0  0  0  0  0  0  0
   17.3679   20.1173   24.9692 H   0  0  0  0  0  0  0  0  0  0  0  0
   17.9989   19.5075   26.5077 H   0  0  0  0  0  0  0  0  0  0  0  0
   17.6328   18.3741   25.1891 H   0  0  0  0  0  0  0  0  0  0  0  0
   20.3919   18.5581   25.5806 N   0  3  0  0  0  0  0  0  0  0  0  0
   20.3773   18.6819   26.5969 H   0  0  0  0  0  0  0  0  0  0  0  0
   20.1268   17.5891   25.3860 H   0  0  0  0  0  0  0  0  0  0  0  0
   21.3596   18.6815   25.2713 H   0  0  0  0  0  0  0  0  0  0  0  0
  1  2  1  0  0  0  0
  1  3  1  0  0  0  0
  1  4  1  0  0  0  0
  1  5  1  0  0  0  0
  5  6  1  0  0  0  0
  5  7  1  0  0  0  0
  5  8  1  0  0  0  0
  8  9  1  0  0  0  0
  8 10  1  0  0  0  0
  8 11  1  0  0  0  0
 11 12  1  0  0  0  0
 11 13  1  0  0  0  0
 11 14  1  0  0  0  0
 14 15  1  0  0  0  0
 14 16  1  0  0  0  0
 14 17  1  0  0  0  0
 17 18  1  0  0  0  0
 17 19  1  0  0  0  0
 19 20  1  0  0  0  0
 19 21  1  0  0  0  0
 19 22  1  0  0  0  0
 17 23  1  0  0  0  0
 23 24  1  0  0  0  0
 23 25  1  0  0  0  0
 23 26  1  0  0  0  0
M  END
> <VM2 Rank>
39

> <Conf_Id>
241

> <Probability>
0.06

> <Sum Probability>
99.08

> <Delta G>
3.348

> <G>
27.058

> <E>
-5.843

> <-TS>
32.901

> <U+W>
-27.305

> <U>
26.796

> <W>
-54.101

> <W(PB)>
-56.405

> <W(SA)>
2.304

> <Valence>
5.706

> <Coulomb>
20.107

> <VdW>
0.982

> <VdW6>
-8.397

> <VdW12>
9.379

> <Bond>
0.254

> <Angle>
1.644

> <Pdih>
3.808

> <Idih>
0.000

> <Tether>
0.000

$$$$
VeraChem MOL file


 26 25  0  0  0  0  0  0  0  0999 V2000     
   19.4954   20.0152   20.1474 C   0  0  0  0  0  0  0  0  0  0  0  0
   19.6918   20.7139   20.9700 H   0  0  0  0  0  0  0  0  0  0  0  0
   19.5603   20.5848   19.2113 H   0  0  0  0  0  0  0  0  0  0  0  0
   18.4677   19.6416   20.2424 H   0  0  0  0  0  0  0  0  0  0  0  0
   20.5126   18.8532   20.1430 C   0  0  0  0  0  0  0  0  0  0  0  0
   21.5321   19.2618   20.1037 H   0  0  0  0  0  0  0  0  0  0  0  0
   20.3816   18.2740   19.2183 H   0  0  0  0  0  0  0  0  0  0  0  0
   20.3861   17.8884   21.3497 C   0  0  0  0  0  0  0  0  0  0  0  0
   19.4035   17.3970   21.3393 H   0  0  0  0  0  0  0  0  0  0  0  0
   21.1206   17.0836   21.2071 H   0  0  0  0  0  0  0  0  0  0  0  0
   20.6475   18.5421   22.7317 C   0  0  0  0  0  0  0  0  0  0  0  0
   21.3341   19.3928   22.6208 H   0  0  0  0  0  0  0  0  0  0  0  0
   21.1681   17.8094   23.3626 H   0  0  0  0  0  0  0  0  0  0  0  0
   19.3496   18.9861   23.4554 C   0  0  0  0  0  0  0  0  0  0  0  0
   18.7627   19.6365   22.7973 H   0  0  0  0  0  0  0  0  0  0  0  0
   18.7226   18.1077   23.6581 H   0  0  0  0  0  0  0  0  0  0  0  0
   19.6255   19.7396   24.7747 C   0  0  1  0  0  0  0  0  0  0  0  0
   20.2709   20.5948   24.5519 H   0  0  0  0  0  0  0  0  0  0  0  0
   18.3122   20.2696   25.3723 C   0  0  0  0  0  0  0  0  0  0  0  0
   17.8054   20.9401   24.6672 H   0  0  0  0  0  0  0  0  0  0  0  0
   18.5049   20.8375   26.2909 H   0  0  0  0  0  0  0  0  0  0  0  0
   17.6267   19.4482   25.6156 H   0  0  0  0  0  0  0  0  0  0  0  0
   20.3590   18.8938   25.7797 N   0  3  0  0  0  0  0  0  0  0  0  0
   21.2576   18.5706   25.4118 H   0  0  0  0  0  0  0  0  0  0  0  0
   20.5504   19.4159   26.6395 H   0  0  0  0  0  0  0  0  0  0  0  0
   19.8158   18.0660   26.0385 H   0  0  0  0  0  0  0  0  0  0  0  0
  1  2  1  0  0  0  0
  1  3  1  0  0  0  0
  1  4  1  0  0  0  0
  1  5  1  0  0  0  0
  5  6  1  0  0  0  0
  5  7  1  0  0  0  0
  5  8  1  0  0  0  0
  8  9  1  0  0  0  0
  8 10  1  0  0  0  0
  8 11  1  0  0  0  0
 11 12  1  0  0  0  0
 11 13  1  0  0  0  0
 11 14  1  0  0  0  0
 14 15  1  0  0  0  0
 14 16  1  0  0  0  0
 14 17  1  0  0  0  0
 17 18  1  0  0  0  0
 17 19  1  0  0  0  0
 19 20  1  0  0  0  0
 19 21  1  0  0  0  0
 19 22  1  0  0  0  0
 17 23  1  0  0  0  0
 23 24  1  0  0  0  0
 23 25  1  0  0  0  0
 23 26  1  0  0  0  0
M  END
> <VM2 Rank>
40

> <Conf_Id>
411

> <Probability>
0.06

> <Sum Probability>
99.14

> <Delta G>
3.387

> <G>
27.097

> <E>
-5.838

> <-TS>
32.935

> <U+W>
-27.300

> <U>
26.787

> <W>
-54.087

> <W(PB)>
-56.349

> <W(SA)>
2.262

> <Valence>
5.742

> <Coulomb>
20.023

> <VdW>
1.022

> <VdW6>
-8.392

> <VdW12>
9.414

> <Bond>
0.261

> <Angle>
1.577

> <Pdih>
3.904

> <Idih>
0.000

> <Tether>
0.000

$$$$
VeraChem MOL file


 26 25  0  0  0  0  0  0  0  0999 V2000     
   19.5737   17.7157   20.5299 C   0  0  0  0  0  0  0  0  0  0  0  0
   18.5343   18.0684   20.5206 H   0  0  0  0  0  0  0  0  0  0  0  0
   19.6651   16.9198   19.7795 H   0  0  0  0  0  0  0  0  0  0  0  0
   19.7835   17.2674   21.5086 H   0  0  0  0  0  0  0  0  0  0  0  0
   20.5557   18.8658   20.2179 C   0  0  0  0  0  0  0  0  0  0  0  0
   20.4278   19.1625   19.1674 H   0  0  0  0  0  0  0  0  0  0  0  0
   21.5875   18.4978   20.3061 H   0  0  0  0  0  0  0  0  0  0  0  0
   20.3738   20.1219   21.1079 C   0  0  0  0  0  0  0  0  0  0  0  0
   21.0909   20.8786   20.7605 H   0  0  0  0  0  0  0  0  0  0  0  0
   19.3797   20.5598   20.9435 H   0  0  0  0  0  0  0  0  0  0  0  0
   20.6167   19.8862   22.6216 C   0  0  0  0  0  0  0  0  0  0  0  0
   21.0757   20.7911   23.0437 H   0  0  0  0  0  0  0  0  0  0  0  0
   21.3509   19.0811   22.7562 H   0  0  0  0  0  0  0  0  0  0  0  0
   19.3170   19.5919   23.4155 C   0  0  0  0  0  0  0  0  0  0  0  0
   18.6141   20.4208   23.2584 H   0  0  0  0  0  0  0  0  0  0  0  0
   18.8228   18.6924   23.0319 H   0  0  0  0  0  0  0  0  0  0  0  0
   19.5635   19.4336   24.9315 C   0  0  1  0  0  0  0  0  0  0  0  0
   20.0738   20.3322   25.2918 H   0  0  0  0  0  0  0  0  0  0  0  0
   18.2271   19.3046   25.6800 C   0  0  0  0  0  0  0  0  0  0  0  0
   17.5944   20.1831   25.5025 H   0  0  0  0  0  0  0  0  0  0  0  0
   18.3937   19.2279   26.7615 H   0  0  0  0  0  0  0  0  0  0  0  0
   17.6743   18.4142   25.3553 H   0  0  0  0  0  0  0  0  0  0  0  0
   20.4604   18.2684   25.2498 N   0  3  0  0  0  0  0  0  0  0  0  0
   21.3710   18.3615   24.7920 H   0  0  0  0  0  0  0  0  0  0  0  0
   20.6306   18.1918   26.2566 H   0  0  0  0  0  0  0  0  0  0  0  0
   20.0481   17.3844   24.9406 H   0  0  0  0  0  0  0  0  0  0  0  0
  1  2  1  0  0  0  0
  1  3  1  0  0  0  0
  1  4  1  0  0  0  0
  1  5  1  0  0  0  0
  5  6  1  0  0  0  0
  5  7  1  0  0  0  0
  5  8  1  0  0  0  0
  8  9  1  0  0  0  0
  8 10  1  0  0  0  0
  8 11  1  0  0  0  0
 11 12  1  0  0  0  0
 11 13  1  0  0  0  0
 11 14  1  0  0  0  0
 14 15  1  0  0  0  0
 14 16  1  0  0  0  0
 14 17  1  0  0  0  0
 17 18  1  0  0  0  0
 17 19  1  0  0  0  0
 19 20  1  0  0  0  0
 19 21  1  0  0  0  0
 19 22  1  0  0  0  0
 17 23  1  0  0  0  0
 23 24  1  0  0  0  0
 23 25  1  0  0  0  0
 23 26  1  0  0  0  0
M  END
> <VM2 Rank>
41

> <Conf_Id>
595

> <Probability>
0.05

> <Sum Probability>
99.19

> <Delta G>
3.472

> <G>
27.182

> <E>
-5.704

> <-TS>
32.886

> <U+W>
-27.166

> <U>
27.046

> <W>
-54.212

> <W(PB)>
-56.480

> <W(SA)>
2.268

> <Valence>
5.686

> <Coulomb>
20.401

> <VdW>
0.959

> <VdW6>
-8.445

> <VdW12>
9.405

> <Bond>
0.263

> <Angle>
1.663

> <Pdih>
3.760

> <Idih>
0.000

> <Tether>
0.000

$$$$
VeraChem MOL file


 26 25  0  0  0  0  0  0  0  0999 V2000     
   21.2358   19.3284   19.8741 C   0  0  0  0  0  0  0  0  0  0  0  0
   21.8622   20.1976   19.6350 H   0  0  0  0  0  0  0  0  0  0  0  0
   21.9017   18.4861   20.1032 H   0  0  0  0  0  0  0  0  0  0  0  0
   20.6578   19.0729   18.9764 H   0  0  0  0  0  0  0  0  0  0  0  0
   20.3047   19.6387   21.0652 C   0  0  0  0  0  0  0  0  0  0  0  0
   19.6746   20.5036   20.8152 H   0  0  0  0  0  0  0  0  0  0  0  0
   20.9177   19.9336   21.9240 H   0  0  0  0  0  0  0  0  0  0  0  0
   19.4090   18.4264   21.4170 C   0  0  0  0  0  0  0  0  0  0  0  0
   18.8471   18.1480   20.5145 H   0  0  0  0  0  0  0  0  0  0  0  0
   20.0286   17.5544   21.6676 H   0  0  0  0  0  0  0  0  0  0  0  0
   18.3886   18.6996   22.5532 C   0  0  0  0  0  0  0  0  0  0  0  0
   17.5151   18.0561   22.3788 H   0  0  0  0  0  0  0  0  0  0  0  0
   18.0061   19.7267   22.4883 H   0  0  0  0  0  0  0  0  0  0  0  0
   18.9062   18.3877   23.9840 C   0  0  0  0  0  0  0  0  0  0  0  0
   18.0736   18.5001   24.6911 H   0  0  0  0  0  0  0  0  0  0  0  0
   19.1921   17.3284   24.0236 H   0  0  0  0  0  0  0  0  0  0  0  0
   20.0971   19.2402   24.4773 C   0  0  1  0  0  0  0  0  0  0  0  0
   20.9201   19.1284   23.7668 H   0  0  0  0  0  0  0  0  0  0  0  0
   19.7318   20.7317   24.5877 C   0  0  0  0  0  0  0  0  0  0  0  0
   18.8896   20.8830   25.2743 H   0  0  0  0  0  0  0  0  0  0  0  0
   19.4566   21.1504   23.6131 H   0  0  0  0  0  0  0  0  0  0  0  0
   20.5843   21.3115   24.9624 H   0  0  0  0  0  0  0  0  0  0  0  0
   20.6148   18.7352   25.7956 N   0  3  0  0  0  0  0  0  0  0  0  0
   21.4278   19.2729   26.1092 H   0  0  0  0  0  0  0  0  0  0  0  0
   19.9033   18.8035   26.5280 H   0  0  0  0  0  0  0  0  0  0  0  0
   20.9030   17.7543   25.7373 H   0  0  0  0  0  0  0  0  0  0  0  0
  1  2  1  0  0  0  0
  1  3  1  0  0  0  0
  1  4  1  0  0  0  0
  1  5  1  0  0  0  0
  5  6  1  0  0  0  0
  5  7  1  0  0  0  0
  5  8  1  0  0  0  0
  8  9  1  0  0  0  0
  8 10  1  0  0  0  0
  8 11  1  0  0  0  0
 11 12  1  0  0  0  0
 11 13  1  0  0  0  0
 11 14  1  0  0  0  0
 14 15  1  0  0  0  0
 14 16  1  0  0  0  0
 14 17  1  0  0  0  0
 17 18  1  0  0  0  0
 17 19  1  0  0  0  0
 19 20  1  0  0  0  0
 19 21  1  0  0  0  0
 19 22  1  0  0  0  0
 17 23  1  0  0  0  0
 23 24  1  0  0  0  0
 23 25  1  0  0  0  0
 23 26  1  0  0  0  0
M  END
> <VM2 Rank>
42

> <Conf_Id>
790

> <Probability>
0.05

> <Sum Probability>
99.24

> <Delta G>
3.476

> <G>
27.186

> <E>
-6.000

> <-TS>
33.186

> <U+W>
-27.461

> <U>
26.923

> <W>
-54.385

> <W(PB)>
-56.636

> <W(SA)>
2.251

> <Valence>
5.932

> <Coulomb>
20.334

> <VdW>
0.657

> <VdW6>
-9.078

> <VdW12>
9.735

> <Bond>
0.268

> <Angle>
2.254

> <Pdih>
3.410

> <Idih>
0.000

> <Tether>
0.000

$$$$
VeraChem MOL file


 26 25  0  0  0  0  0  0  0  0999 V2000     
   21.2368   19.1530   19.8068 C   0  0  0  0  0  0  0  0  0  0  0  0
   22.2502   19.5748   19.8003 H   0  0  0  0  0  0  0  0  0  0  0  0
   21.3104   18.0944   19.5257 H   0  0  0  0  0  0  0  0  0  0  0  0
   20.6517   19.6717   19.0362 H   0  0  0  0  0  0  0  0  0  0  0  0
   20.5890   19.3133   21.1986 C   0  0  0  0  0  0  0  0  0  0  0  0
   20.5512   20.3794   21.4625 H   0  0  0  0  0  0  0  0  0  0  0  0
   21.2265   18.8148   21.9400 H   0  0  0  0  0  0  0  0  0  0  0  0
   19.1661   18.7102   21.2374 C   0  0  0  0  0  0  0  0  0  0  0  0
   18.5955   19.0914   20.3792 H   0  0  0  0  0  0  0  0  0  0  0  0
   19.2279   17.6217   21.1015 H   0  0  0  0  0  0  0  0  0  0  0  0
   18.3634   19.0268   22.5261 C   0  0  0  0  0  0  0  0  0  0  0  0
   17.3636   18.5879   22.4039 H   0  0  0  0  0  0  0  0  0  0  0  0
   18.1969   20.1080   22.6056 H   0  0  0  0  0  0  0  0  0  0  0  0
   18.9743   18.4573   23.8362 C   0  0  0  0  0  0  0  0  0  0  0  0
   18.1669   18.3042   24.5646 H   0  0  0  0  0  0  0  0  0  0  0  0
   19.3805   17.4586   23.6288 H   0  0  0  0  0  0  0  0  0  0  0  0
   20.0663   19.3332   24.4978 C   0  0  1  0  0  0  0  0  0  0  0  0
   20.8087   19.6054   23.7447 H   0  0  0  0  0  0  0  0  0  0  0  0
   19.4860   20.6290   25.0931 C   0  0  0  0  0  0  0  0  0  0  0  0
   18.7047   20.4116   25.8320 H   0  0  0  0  0  0  0  0  0  0  0  0
   19.0540   21.2704   24.3169 H   0  0  0  0  0  0  0  0  0  0  0  0
   20.2717   21.2096   25.5919 H   0  0  0  0  0  0  0  0  0  0  0  0
   20.8060   18.5651   25.5580 N   0  3  0  0  0  0  0  0  0  0  0  0
   20.1808   18.2756   26.3148 H   0  0  0  0  0  0  0  0  0  0  0  0
   21.2405   17.7193   25.1779 H   0  0  0  0  0  0  0  0  0  0  0  0
   21.5515   19.1282   25.9771 H   0  0  0  0  0  0  0  0  0  0  0  0
  1  2  1  0  0  0  0
  1  3  1  0  0  0  0
  1  4  1  0  0  0  0
  1  5  1  0  0  0  0
  5  6  1  0  0  0  0
  5  7  1  0  0  0  0
  5  8  1  0  0  0  0
  8  9  1  0  0  0  0
  8 10  1  0  0  0  0
  8 11  1  0  0  0  0
 11 12  1  0  0  0  0
 11 13  1  0  0  0  0
 11 14  1  0  0  0  0
 14 15  1  0  0  0  0
 14 16  1  0  0  0  0
 14 17  1  0  0  0  0
 17 18  1  0  0  0  0
 17 19  1  0  0  0  0
 19 20  1  0  0  0  0
 19 21  1  0  0  0  0
 19 22  1  0  0  0  0
 17 23  1  0  0  0  0
 23 24  1  0  0  0  0
 23 25  1  0  0  0  0
 23 26  1  0  0  0  0
M  END
> <VM2 Rank>
43

> <Conf_Id>
836

> <Probability>
0.05

> <Sum Probability>
99.28

> <Delta G>
3.523

> <G>
27.233

> <E>
-5.556

> <-TS>
32.788

> <U+W>
-27.018

> <U>
27.379

> <W>
-54.397

> <W(PB)>
-56.652

> <W(SA)>
2.255

> <Valence>
5.926

> <Coulomb>
20.578

> <VdW>
0.876

> <VdW6>
-8.774

> <VdW12>
9.650

> <Bond>
0.273

> <Angle>
2.152

> <Pdih>
3.501

> <Idih>
0.000

> <Tether>
0.000

$$$$
VeraChem MOL file


 26 25  0  0  0  0  0  0  0  0999 V2000     
   18.9271   18.9926   19.9664 C   0  0  0  0  0  0  0  0  0  0  0  0
   18.8667   17.9702   19.5714 H   0  0  0  0  0  0  0  0  0  0  0  0
   18.2729   19.0537   20.8430 H   0  0  0  0  0  0  0  0  0  0  0  0
   18.5234   19.6689   19.2019 H   0  0  0  0  0  0  0  0  0  0  0  0
   20.3894   19.3678   20.3026 C   0  0  0  0  0  0  0  0  0  0  0  0
   20.4513   20.4172   20.6229 H   0  0  0  0  0  0  0  0  0  0  0  0
   20.9774   19.3000   19.3765 H   0  0  0  0  0  0  0  0  0  0  0  0
   21.0330   18.4401   21.3654 C   0  0  0  0  0  0  0  0  0  0  0  0
   20.5800   17.4401   21.3211 H   0  0  0  0  0  0  0  0  0  0  0  0
   22.0895   18.2973   21.0990 H   0  0  0  0  0  0  0  0  0  0  0  0
   20.9879   18.9814   22.8179 C   0  0  0  0  0  0  0  0  0  0  0  0
   21.5396   19.9303   22.8700 H   0  0  0  0  0  0  0  0  0  0  0  0
   21.5342   18.2745   23.4558 H   0  0  0  0  0  0  0  0  0  0  0  0
   19.5579   19.1884   23.3767 C   0  0  0  0  0  0  0  0  0  0  0  0
   19.0538   19.9611   22.7836 H   0  0  0  0  0  0  0  0  0  0  0  0
   18.9748   18.2650   23.2624 H   0  0  0  0  0  0  0  0  0  0  0  0
   19.5453   19.6320   24.8559 C   0  0  1  0  0  0  0  0  0  0  0  0
   20.1677   20.5271   24.9510 H   0  0  0  0  0  0  0  0  0  0  0  0
   18.1157   19.9899   25.2932 C   0  0  0  0  0  0  0  0  0  0  0  0
   17.7059   20.7931   24.6682 H   0  0  0  0  0  0  0  0  0  0  0  0
   18.1036   20.3392   26.3330 H   0  0  0  0  0  0  0  0  0  0  0  0
   17.4480   19.1226   25.2161 H   0  0  0  0  0  0  0  0  0  0  0  0
   20.1316   18.5958   25.7759 N   0  3  0  0  0  0  0  0  0  0  0  0
   19.6015   17.7212   25.7391 H   0  0  0  0  0  0  0  0  0  0  0  0
   21.1007   18.3797   25.5280 H   0  0  0  0  0  0  0  0  0  0  0  0
   20.1290   18.9150   26.7487 H   0  0  0  0  0  0  0  0  0  0  0  0
  1  2  1  0  0  0  0
  1  3  1  0  0  0  0
  1  4  1  0  0  0  0
  1  5  1  0  0  0  0
  5  6  1  0  0  0  0
  5  7  1  0  0  0  0
  5  8  1  0  0  0  0
  8  9  1  0  0  0  0
  8 10  1  0  0  0  0
  8 11  1  0  0  0  0
 11 12  1  0  0  0  0
 11 13  1  0  0  0  0
 11 14  1  0  0  0  0
 14 15  1  0  0  0  0
 14 16  1  0  0  0  0
 14 17  1  0  0  0  0
 17 18  1  0  0  0  0
 17 19  1  0  0  0  0
 19 20  1  0  0  0  0
 19 21  1  0  0  0  0
 19 22  1  0  0  0  0
 17 23  1  0  0  0  0
 23 24  1  0  0  0  0
 23 25  1  0  0  0  0
 23 26  1  0  0  0  0
M  END
> <VM2 Rank>
44

> <Conf_Id>
822

> <Probability>
0.05

> <Sum Probability>
99.33

> <Delta G>
3.529

> <G>
27.239

> <E>
-5.653

> <-TS>
32.892

> <U+W>
-27.115

> <U>
26.879

> <W>
-53.994

> <W(PB)>
-56.259

> <W(SA)>
2.265

> <Valence>
5.789

> <Coulomb>
20.012

> <VdW>
1.078

> <VdW6>
-8.363

> <VdW12>
9.442

> <Bond>
0.261

> <Angle>
1.699

> <Pdih>
3.828

> <Idih>
0.000

> <Tether>
0.000

$$$$
VeraChem MOL file


 26 25  0  0  0  0  0  0  0  0999 V2000     
   19.2990   19.8467   20.2869 C   0  0  0  0  0  0  0  0  0  0  0  0
   18.4168   19.2670   20.5828 H   0  0  0  0  0  0  0  0  0  0  0  0
   19.3656   20.7390   20.9226 H   0  0  0  0  0  0  0  0  0  0  0  0
   19.1344   20.1810   19.2544 H   0  0  0  0  0  0  0  0  0  0  0  0
   20.5841   18.9961   20.3779 C   0  0  0  0  0  0  0  0  0  0  0  0
   21.3889   19.5236   19.8470 H   0  0  0  0  0  0  0  0  0  0  0  0
   20.4355   18.0499   19.8390 H   0  0  0  0  0  0  0  0  0  0  0  0
   21.0662   18.7060   21.8223 C   0  0  0  0  0  0  0  0  0  0  0  0
   22.0189   18.1646   21.7412 H   0  0  0  0  0  0  0  0  0  0  0  0
   21.3120   19.6469   22.3298 H   0  0  0  0  0  0  0  0  0  0  0  0
   20.1034   17.8390   22.6806 C   0  0  0  0  0  0  0  0  0  0  0  0
   20.7038   17.2496   23.3863 H   0  0  0  0  0  0  0  0  0  0  0  0
   19.6080   17.0989   22.0376 H   0  0  0  0  0  0  0  0  0  0  0  0
   19.0296   18.6216   23.4871 C   0  0  0  0  0  0  0  0  0  0  0  0
   18.3334   19.1142   22.8007 H   0  0  0  0  0  0  0  0  0  0  0  0
   18.4258   17.9014   24.0549 H   0  0  0  0  0  0  0  0  0  0  0  0
   19.5995   19.6773   24.4617 C   0  0  1  0  0  0  0  0  0  0  0  0
   20.1700   20.4099   23.8840 H   0  0  0  0  0  0  0  0  0  0  0  0
   18.4568   20.4196   25.1729 C   0  0  0  0  0  0  0  0  0  0  0  0
   17.7967   20.9075   24.4449 H   0  0  0  0  0  0  0  0  0  0  0  0
   18.8533   21.1980   25.8364 H   0  0  0  0  0  0  0  0  0  0  0  0
   17.8511   19.7320   25.7765 H   0  0  0  0  0  0  0  0  0  0  0  0
   20.5494   19.0817   25.4644 N   0  3  0  0  0  0  0  0  0  0  0  0
   20.0836   18.3847   26.0512 H   0  0  0  0  0  0  0  0  0  0  0  0
   21.3361   18.6193   25.0009 H   0  0  0  0  0  0  0  0  0  0  0  0
   20.9360   19.7975   26.0860 H   0  0  0  0  0  0  0  0  0  0  0  0
  1  2  1  0  0  0  0
  1  3  1  0  0  0  0
  1  4  1  0  0  0  0
  1  5  1  0  0  0  0
  5  6  1  0  0  0  0
  5  7  1  0  0  0  0
  5  8  1  0  0  0  0
  8  9  1  0  0  0  0
  8 10  1  0  0  0  0
  8 11  1  0  0  0  0
 11 12  1  0  0  0  0
 11 13  1  0  0  0  0
 11 14  1  0  0  0  0
 14 15  1  0  0  0  0
 14 16  1  0  0  0  0
 14 17  1  0  0  0  0
 17 18  1  0  0  0  0
 17 19  1  0  0  0  0
 19 20  1  0  0  0  0
 19 21  1  0  0  0  0
 19 22  1  0  0  0  0
 17 23  1  0  0  0  0
 23 24  1  0  0  0  0
 23 25  1  0  0  0  0
 23 26  1  0  0  0  0
M  END
> <VM2 Rank>
45

> <Conf_Id>
996

> <Probability>
0.04

> <Sum Probability>
99.37

> <Delta G>
3.595

> <G>
27.304

> <E>
-5.212

> <-TS>
32.516

> <U+W>
-26.674

> <U>
27.544

> <W>
-54.218

> <W(PB)>
-56.452

> <W(SA)>
2.234

> <Valence>
6.186

> <Coulomb>
20.490

> <VdW>
0.868

> <VdW6>
-9.300

> <VdW12>
10.168

> <Bond>
0.324

> <Angle>
2.319

> <Pdih>
3.543

> <Idih>
0.000

> <Tether>
0.000

$$$$
VeraChem MOL file


 26 25  0  0  0  0  0  0  0  0999 V2000     
   19.3005   17.9066   20.4584 C   0  0  0  0  0  0  0  0  0  0  0  0
   18.7620   17.5180   19.5844 H   0  0  0  0  0  0  0  0  0  0  0  0
   20.0164   17.1394   20.7804 H   0  0  0  0  0  0  0  0  0  0  0  0
   18.5631   18.0557   21.2566 H   0  0  0  0  0  0  0  0  0  0  0  0
   20.0191   19.2271   20.1056 C   0  0  0  0  0  0  0  0  0  0  0  0
   19.2713   19.9936   19.8587 H   0  0  0  0  0  0  0  0  0  0  0  0
   20.6095   19.0732   19.1915 H   0  0  0  0  0  0  0  0  0  0  0  0
   20.9619   19.7589   21.2152 C   0  0  0  0  0  0  0  0  0  0  0  0
   21.7792   19.0457   21.3891 H   0  0  0  0  0  0  0  0  0  0  0  0
   21.4418   20.6697   20.8312 H   0  0  0  0  0  0  0  0  0  0  0  0
   20.2578   20.1113   22.5518 C   0  0  0  0  0  0  0  0  0  0  0  0
   19.2270   20.4290   22.3496 H   0  0  0  0  0  0  0  0  0  0  0  0
   20.7647   20.9813   22.9919 H   0  0  0  0  0  0  0  0  0  0  0  0
   20.2939   18.9582   23.5896 C   0  0  0  0  0  0  0  0  0  0  0  0
   19.7792   18.0719   23.2024 H   0  0  0  0  0  0  0  0  0  0  0  0
   21.3404   18.6630   23.7416 H   0  0  0  0  0  0  0  0  0  0  0  0
   19.6926   19.3408   24.9612 C   0  0  1  0  0  0  0  0  0  0  0  0
   20.1810   20.2571   25.3070 H   0  0  0  0  0  0  0  0  0  0  0  0
   18.1769   19.5966   24.8774 C   0  0  0  0  0  0  0  0  0  0  0  0
   17.9516   20.4585   24.2391 H   0  0  0  0  0  0  0  0  0  0  0  0
   17.7665   19.8139   25.8712 H   0  0  0  0  0  0  0  0  0  0  0  0
   17.6487   18.7232   24.4750 H   0  0  0  0  0  0  0  0  0  0  0  0
   19.9853   18.2886   25.9948 N   0  3  0  0  0  0  0  0  0  0  0  0
   20.9918   18.1322   26.0996 H   0  0  0  0  0  0  0  0  0  0  0  0
   19.6223   18.5563   26.9141 H   0  0  0  0  0  0  0  0  0  0  0  0
   19.5586   17.3918   25.7477 H   0  0  0  0  0  0  0  0  0  0  0  0
  1  2  1  0  0  0  0
  1  3  1  0  0  0  0
  1  4  1  0  0  0  0
  1  5  1  0  0  0  0
  5  6  1  0  0  0  0
  5  7  1  0  0  0  0
  5  8  1  0  0  0  0
  8  9  1  0  0  0  0
  8 10  1  0  0  0  0
  8 11  1  0  0  0  0
 11 12  1  0  0  0  0
 11 13  1  0  0  0  0
 11 14  1  0  0  0  0
 14 15  1  0  0  0  0
 14 16  1  0  0  0  0
 14 17  1  0  0  0  0
 17 18  1  0  0  0  0
 17 19  1  0  0  0  0
 19 20  1  0  0  0  0
 19 21  1  0  0  0  0
 19 22  1  0  0  0  0
 17 23  1  0  0  0  0
 23 24  1  0  0  0  0
 23 25  1  0  0  0  0
 23 26  1  0  0  0  0
M  END
> <VM2 Rank>
46

> <Conf_Id>
507

> <Probability>
0.04

> <Sum Probability>
99.41

> <Delta G>
3.672

> <G>
27.382

> <E>
-5.486

> <-TS>
32.868

> <U+W>
-26.948

> <U>
27.261

> <W>
-54.209

> <W(PB)>
-56.472

> <W(SA)>
2.263

> <Valence>
6.230

> <Coulomb>
19.945

> <VdW>
1.087

> <VdW6>
-8.618

> <VdW12>
9.705

> <Bond>
0.277

> <Angle>
1.928

> <Pdih>
4.024

> <Idih>
0.000

> <Tether>
0.000

$$$$
VeraChem MOL file


 26 25  0  0  0  0  0  0  0  0999 V2000     
   20.2808   19.1191   19.3038 C   0  0  0  0  0  0  0  0  0  0  0  0
   20.9375   19.0643   18.4259 H   0  0  0  0  0  0  0  0  0  0  0  0
   19.3311   18.6341   19.0432 H   0  0  0  0  0  0  0  0  0  0  0  0
   20.0832   20.1800   19.5012 H   0  0  0  0  0  0  0  0  0  0  0  0
   20.9428   18.4289   20.5180 C   0  0  0  0  0  0  0  0  0  0  0  0
   21.8733   18.9525   20.7782 H   0  0  0  0  0  0  0  0  0  0  0  0
   21.2346   17.4095   20.2289 H   0  0  0  0  0  0  0  0  0  0  0  0
   20.0223   18.3481   21.7598 C   0  0  0  0  0  0  0  0  0  0  0  0
   19.1037   17.8056   21.4966 H   0  0  0  0  0  0  0  0  0  0  0  0
   20.5265   17.7390   22.5181 H   0  0  0  0  0  0  0  0  0  0  0  0
   19.6536   19.7370   22.3429 C   0  0  0  0  0  0  0  0  0  0  0  0
   19.0631   20.2816   21.5944 H   0  0  0  0  0  0  0  0  0  0  0  0
   20.5592   20.3363   22.5106 H   0  0  0  0  0  0  0  0  0  0  0  0
   18.8168   19.6645   23.6475 C   0  0  0  0  0  0  0  0  0  0  0  0
   18.1633   20.5467   23.6753 H   0  0  0  0  0  0  0  0  0  0  0  0
   18.1469   18.7947   23.6236 H   0  0  0  0  0  0  0  0  0  0  0  0
   19.6582   19.6632   24.9455 C   0  0  1  0  0  0  0  0  0  0  0  0
   20.2978   20.5512   24.9357 H   0  0  0  0  0  0  0  0  0  0  0  0
   18.7388   19.7491   26.1746 C   0  0  0  0  0  0  0  0  0  0  0  0
   18.1169   20.6520   26.1347 H   0  0  0  0  0  0  0  0  0  0  0  0
   19.3285   19.7926   27.0986 H   0  0  0  0  0  0  0  0  0  0  0  0
   18.0737   18.8785   26.2342 H   0  0  0  0  0  0  0  0  0  0  0  0
   20.5748   18.4782   25.0619 N   0  3  0  0  0  0  0  0  0  0  0  0
   20.0490   17.6005   25.0766 H   0  0  0  0  0  0  0  0  0  0  0  0
   21.2274   18.4384   24.2746 H   0  0  0  0  0  0  0  0  0  0  0  0
   21.1309   18.5184   25.9208 H   0  0  0  0  0  0  0  0  0  0  0  0
  1  2  1  0  0  0  0
  1  3  1  0  0  0  0
  1  4  1  0  0  0  0
  1  5  1  0  0  0  0
  5  6  1  0  0  0  0
  5  7  1  0  0  0  0
  5  8  1  0  0  0  0
  8  9  1  0  0  0  0
  8 10  1  0  0  0  0
  8 11  1  0  0  0  0
 11 12  1  0  0  0  0
 11 13  1  0  0  0  0
 11 14  1  0  0  0  0
 14 15  1  0  0  0  0
 14 16  1  0  0  0  0
 14 17  1  0  0  0  0
 17 18  1  0  0  0  0
 17 19  1  0  0  0  0
 19 20  1  0  0  0  0
 19 21  1  0  0  0  0
 19 22  1  0  0  0  0
 17 23  1  0  0  0  0
 23 24  1  0  0  0  0
 23 25  1  0  0  0  0
 23 26  1  0  0  0  0
M  END
> <VM2 Rank>
47

> <Conf_Id>
946

> <Probability>
0.04

> <Sum Probability>
99.44

> <Delta G>
3.680

> <G>
27.390

> <E>
-5.262

> <-TS>
32.652

> <U+W>
-26.724

> <U>
27.192

> <W>
-53.916

> <W(PB)>
-56.211

> <W(SA)>
2.295

> <Valence>
5.378

> <Coulomb>
20.710

> <VdW>
1.105

> <VdW6>
-8.250

> <VdW12>
9.354

> <Bond>
0.276

> <Angle>
1.582

> <Pdih>
3.520

> <Idih>
0.000

> <Tether>
0.000

$$$$
VeraChem MOL file


 26 25  0  0  0  0  0  0  0  0999 V2000     
   19.2880   18.4523   19.8553 C   0  0  0  0  0  0  0  0  0  0  0  0
   18.7475   17.6151   20.3156 H   0  0  0  0  0  0  0  0  0  0  0  0
   18.6790   19.3580   19.9667 H   0  0  0  0  0  0  0  0  0  0  0  0
   19.3769   18.2444   18.7811 H   0  0  0  0  0  0  0  0  0  0  0  0
   20.6864   18.6275   20.4898 C   0  0  0  0  0  0  0  0  0  0  0  0
   21.1966   19.4848   20.0288 H   0  0  0  0  0  0  0  0  0  0  0  0
   21.2963   17.7442   20.2541 H   0  0  0  0  0  0  0  0  0  0  0  0
   20.6432   18.8072   22.0262 C   0  0  0  0  0  0  0  0  0  0  0  0
   20.1567   17.9290   22.4677 H   0  0  0  0  0  0  0  0  0  0  0  0
   21.6748   18.8272   22.4040 H   0  0  0  0  0  0  0  0  0  0  0  0
   19.9121   20.0991   22.4694 C   0  0  0  0  0  0  0  0  0  0  0  0
   18.8436   20.0272   22.2296 H   0  0  0  0  0  0  0  0  0  0  0  0
   20.2948   20.9395   21.8742 H   0  0  0  0  0  0  0  0  0  0  0  0
   20.0893   20.4608   23.9711 C   0  0  0  0  0  0  0  0  0  0  0  0
   21.1511   20.6501   24.1762 H   0  0  0  0  0  0  0  0  0  0  0  0
   19.5844   21.4202   24.1449 H   0  0  0  0  0  0  0  0  0  0  0  0
   19.5470   19.4520   25.0158 C   0  0  1  0  0  0  0  0  0  0  0  0
   19.5613   19.9624   25.9838 H   0  0  0  0  0  0  0  0  0  0  0  0
   18.0908   19.0411   24.7359 C   0  0  0  0  0  0  0  0  0  0  0  0
   17.4520   19.9260   24.6243 H   0  0  0  0  0  0  0  0  0  0  0  0
   17.6930   18.4461   25.5671 H   0  0  0  0  0  0  0  0  0  0  0  0
   18.0080   18.4393   23.8230 H   0  0  0  0  0  0  0  0  0  0  0  0
   20.4312   18.2480   25.1905 N   0  3  0  0  0  0  0  0  0  0  0  0
   20.4876   17.7002   24.3296 H   0  0  0  0  0  0  0  0  0  0  0  0
   21.3847   18.5180   25.4481 H   0  0  0  0  0  0  0  0  0  0  0  0
   20.0795   17.6303   25.9276 H   0  0  0  0  0  0  0  0  0  0  0  0
  1  2  1  0  0  0  0
  1  3  1  0  0  0  0
  1  4  1  0  0  0  0
  1  5  1  0  0  0  0
  5  6  1  0  0  0  0
  5  7  1  0  0  0  0
  5  8  1  0  0  0  0
  8  9  1  0  0  0  0
  8 10  1  0  0  0  0
  8 11  1  0  0  0  0
 11 12  1  0  0  0  0
 11 13  1  0  0  0  0
 11 14  1  0  0  0  0
 14 15  1  0  0  0  0
 14 16  1  0  0  0  0
 14 17  1  0  0  0  0
 17 18  1  0  0  0  0
 17 19  1  0  0  0  0
 19 20  1  0  0  0  0
 19 21  1  0  0  0  0
 19 22  1  0  0  0  0
 17 23  1  0  0  0  0
 23 24  1  0  0  0  0
 23 25  1  0  0  0  0
 23 26  1  0  0  0  0
M  END
> <VM2 Rank>
48

> <Conf_Id>
1006

> <Probability>
0.03

> <Sum Probability>
99.47

> <Delta G>
3.766

> <G>
27.476

> <E>
-5.792

> <-TS>
33.268

> <U+W>
-27.254

> <U>
27.148

> <W>
-54.398

> <W(PB)>
-56.624

> <W(SA)>
2.226

> <Valence>
5.071

> <Coulomb>
21.224

> <VdW>
0.853

> <VdW6>
-9.599

> <VdW12>
10.451

> <Bond>
0.312

> <Angle>
2.307

> <Pdih>
2.453

> <Idih>
0.000

> <Tether>
0.000

$$$$
VeraChem MOL file


 26 25  0  0  0  0  0  0  0  0999 V2000     
   21.0076   19.7120   19.8277 C   0  0  0  0  0  0  0  0  0  0  0  0
   20.7471   19.0362   19.0027 H   0  0  0  0  0  0  0  0  0  0  0  0
   20.4021   20.6223   19.7283 H   0  0  0  0  0  0  0  0  0  0  0  0
   22.0620   19.9943   19.7112 H   0  0  0  0  0  0  0  0  0  0  0  0
   20.7723   19.0363   21.1952 C   0  0  0  0  0  0  0  0  0  0  0  0
   21.0881   19.7260   21.9856 H   0  0  0  0  0  0  0  0  0  0  0  0
   21.4140   18.1476   21.2727 H   0  0  0  0  0  0  0  0  0  0  0  0
   19.2905   18.6276   21.3782 C   0  0  0  0  0  0  0  0  0  0  0  0
   18.6402   19.5104   21.3072 H   0  0  0  0  0  0  0  0  0  0  0  0
   19.0122   17.9796   20.5355 H   0  0  0  0  0  0  0  0  0  0  0  0
   19.0002   17.8561   22.6924 C   0  0  0  0  0  0  0  0  0  0  0  0
   19.8361   17.1877   22.9379 H   0  0  0  0  0  0  0  0  0  0  0  0
   18.1442   17.1923   22.5074 H   0  0  0  0  0  0  0  0  0  0  0  0
   18.6308   18.7498   23.9074 C   0  0  0  0  0  0  0  0  0  0  0  0
   17.7465   19.3474   23.6489 H   0  0  0  0  0  0  0  0  0  0  0  0
   18.3244   18.1016   24.7391 H   0  0  0  0  0  0  0  0  0  0  0  0
   19.7489   19.6947   24.3971 C   0  0  1  0  0  0  0  0  0  0  0  0
   20.0213   20.3615   23.5749 H   0  0  0  0  0  0  0  0  0  0  0  0
   19.2439   20.5618   25.5613 C   0  0  0  0  0  0  0  0  0  0  0  0
   18.9572   19.9444   26.4218 H   0  0  0  0  0  0  0  0  0  0  0  0
   18.3698   21.1513   25.2574 H   0  0  0  0  0  0  0  0  0  0  0  0
   20.0210   21.2636   25.8881 H   0  0  0  0  0  0  0  0  0  0  0  0
   20.9938   18.9497   24.7948 N   0  3  0  0  0  0  0  0  0  0  0  0
   21.3551   18.3902   24.0179 H   0  0  0  0  0  0  0  0  0  0  0  0
   21.7370   19.5902   25.0880 H   0  0  0  0  0  0  0  0  0  0  0  0
   20.8125   18.3132   25.5754 H   0  0  0  0  0  0  0  0  0  0  0  0
  1  2  1  0  0  0  0
  1  3  1  0  0  0  0
  1  4  1  0  0  0  0
  1  5  1  0  0  0  0
  5  6  1  0  0  0  0
  5  7  1  0  0  0  0
  5  8  1  0  0  0  0
  8  9  1  0  0  0  0
  8 10  1  0  0  0  0
  8 11  1  0  0  0  0
 11 12  1  0  0  0  0
 11 13  1  0  0  0  0
 11 14  1  0  0  0  0
 14 15  1  0  0  0  0
 14 16  1  0  0  0  0
 14 17  1  0  0  0  0
 17 18  1  0  0  0  0
 17 19  1  0  0  0  0
 19 20  1  0  0  0  0
 19 21  1  0  0  0  0
 19 22  1  0  0  0  0
 17 23  1  0  0  0  0
 23 24  1  0  0  0  0
 23 25  1  0  0  0  0
 23 26  1  0  0  0  0
M  END
> <VM2 Rank>
49

> <Conf_Id>
102

> <Probability>
0.03

> <Sum Probability>
99.50

> <Delta G>
3.783

> <G>
27.493

> <E>
-5.512

> <-TS>
33.005

> <U+W>
-26.974

> <U>
27.042

> <W>
-54.015

> <W(PB)>
-56.287

> <W(SA)>
2.272

> <Valence>
5.411

> <Coulomb>
21.047

> <VdW>
0.584

> <VdW6>
-8.849

> <VdW12>
9.434

> <Bond>
0.257

> <Angle>
1.922

> <Pdih>
3.231

> <Idih>
0.000

> <Tether>
0.000

$$$$
VeraChem MOL file


 26 25  0  0  0  0  0  0  0  0999 V2000     
   20.4281   17.6844   20.3102 C   0  0  0  0  0  0  0  0  0  0  0  0
   21.4320   17.8501   19.8980 H   0  0  0  0  0  0  0  0  0  0  0  0
   20.5411   17.2793   21.3215 H   0  0  0  0  0  0  0  0  0  0  0  0
   19.9403   16.9150   19.6979 H   0  0  0  0  0  0  0  0  0  0  0  0
   19.6019   18.9916   20.2937 C   0  0  0  0  0  0  0  0  0  0  0  0
   18.5810   18.8027   20.6540 H   0  0  0  0  0  0  0  0  0  0  0  0
   19.4983   19.3118   19.2474 H   0  0  0  0  0  0  0  0  0  0  0  0
   20.2529   20.1456   21.0990 C   0  0  0  0  0  0  0  0  0  0  0  0
   21.3477   20.0567   21.0740 H   0  0  0  0  0  0  0  0  0  0  0  0
   20.0218   21.0904   20.5876 H   0  0  0  0  0  0  0  0  0  0  0  0
   19.7597   20.2771   22.5633 C   0  0  0  0  0  0  0  0  0  0  0  0
   18.6773   20.4621   22.5587 H   0  0  0  0  0  0  0  0  0  0  0  0
   20.2235   21.1706   23.0037 H   0  0  0  0  0  0  0  0  0  0  0  0
   20.0815   19.0527   23.4558 C   0  0  0  0  0  0  0  0  0  0  0  0
   19.4802   18.1924   23.1364 H   0  0  0  0  0  0  0  0  0  0  0  0
   21.1346   18.7788   23.3100 H   0  0  0  0  0  0  0  0  0  0  0  0
   19.8438   19.3056   24.9619 C   0  0  1  0  0  0  0  0  0  0  0  0
   20.4210   20.1874   25.2568 H   0  0  0  0  0  0  0  0  0  0  0  0
   18.3600   19.5673   25.2774 C   0  0  0  0  0  0  0  0  0  0  0  0
   17.7305   18.7320   24.9462 H   0  0  0  0  0  0  0  0  0  0  0  0
   18.0039   20.4813   24.7881 H   0  0  0  0  0  0  0  0  0  0  0  0
   18.2117   19.6980   26.3564 H   0  0  0  0  0  0  0  0  0  0  0  0
   20.3601   18.1637   25.7928 N   0  3  0  0  0  0  0  0  0  0  0  0
   19.8668   17.2926   25.5800 H   0  0  0  0  0  0  0  0  0  0  0  0
   21.3578   18.0001   25.6307 H   0  0  0  0  0  0  0  0  0  0  0  0
   20.2407   18.3455   26.7934 H   0  0  0  0  0  0  0  0  0  0  0  0
  1  2  1  0  0  0  0
  1  3  1  0  0  0  0
  1  4  1  0  0  0  0
  1  5  1  0  0  0  0
  5  6  1  0  0  0  0
  5  7  1  0  0  0  0
  5  8  1  0  0  0  0
  8  9  1  0  0  0  0
  8 10  1  0  0  0  0
  8 11  1  0  0  0  0
 11 12  1  0  0  0  0
 11 13  1  0  0  0  0
 11 14  1  0  0  0  0
 14 15  1  0  0  0  0
 14 16  1  0  0  0  0
 14 17  1  0  0  0  0
 17 18  1  0  0  0  0
 17 19  1  0  0  0  0
 19 20  1  0  0  0  0
 19 21  1  0  0  0  0
 19 22  1  0  0  0  0
 17 23  1  0  0  0  0
 23 24  1  0  0  0  0
 23 25  1  0  0  0  0
 23 26  1  0  0  0  0
M  END
> <VM2 Rank>
50

> <Conf_Id>
445

> <Probability>
0.03

> <Sum Probability>
99.53

> <Delta G>
3.785

> <G>
27.495

> <E>
-5.432

> <-TS>
32.927

> <U+W>
-26.894

> <U>
27.268

> <W>
-54.162

> <W(PB)>
-56.431

> <W(SA)>
2.270

> <Valence>
6.201

> <Coulomb>
19.968

> <VdW>
1.099

> <VdW6>
-8.560

> <VdW12>
9.659

> <Bond>
0.266

> <Angle>
1.902

> <Pdih>
4.034

> <Idih>
0.000

> <Tether>
0.000

$$$$
VeraChem MOL file


 26 25  0  0  0  0  0  0  0  0999 V2000     
   20.0267   18.6010   19.3449 C   0  0  0  0  0  0  0  0  0  0  0  0
   19.1871   19.3066   19.3555 H   0  0  0  0  0  0  0  0  0  0  0  0
   20.4995   18.6685   18.3566 H   0  0  0  0  0  0  0  0  0  0  0  0
   19.6245   17.5855   19.4550 H   0  0  0  0  0  0  0  0  0  0  0  0
   21.0533   18.9162   20.4569 C   0  0  0  0  0  0  0  0  0  0  0  0
   21.4157   19.9478   20.3464 H   0  0  0  0  0  0  0  0  0  0  0  0
   21.9293   18.2670   20.3184 H   0  0  0  0  0  0  0  0  0  0  0  0
   20.5021   18.7031   21.8878 C   0  0  0  0  0  0  0  0  0  0  0  0
   20.1142   17.6794   21.9814 H   0  0  0  0  0  0  0  0  0  0  0  0
   21.3465   18.7917   22.5815 H   0  0  0  0  0  0  0  0  0  0  0  0
   19.4055   19.7239   22.2839 C   0  0  0  0  0  0  0  0  0  0  0  0
   18.6190   19.7270   21.5189 H   0  0  0  0  0  0  0  0  0  0  0  0
   19.8326   20.7362   22.2854 H   0  0  0  0  0  0  0  0  0  0  0  0
   18.7230   19.4502   23.6504 C   0  0  0  0  0  0  0  0  0  0  0  0
   17.9077   20.1789   23.7531 H   0  0  0  0  0  0  0  0  0  0  0  0
   18.2415   18.4634   23.6422 H   0  0  0  0  0  0  0  0  0  0  0  0
   19.6537   19.5734   24.8804 C   0  0  1  0  0  0  0  0  0  0  0  0
   20.3421   20.4070   24.7108 H   0  0  0  0  0  0  0  0  0  0  0  0
   18.8332   19.8771   26.1451 C   0  0  0  0  0  0  0  0  0  0  0  0
   18.2787   20.8174   26.0351 H   0  0  0  0  0  0  0  0  0  0  0  0
   19.4890   19.9805   27.0185 H   0  0  0  0  0  0  0  0  0  0  0  0
   18.1117   19.0766   26.3518 H   0  0  0  0  0  0  0  0  0  0  0  0
   20.4906   18.3432   25.1046 N   0  3  0  0  0  0  0  0  0  0  0  0
   21.0560   18.1189   24.2829 H   0  0  0  0  0  0  0  0  0  0  0  0
   21.1297   18.4650   25.8954 H   0  0  0  0  0  0  0  0  0  0  0  0
   19.9060   17.5282   25.3075 H   0  0  0  0  0  0  0  0  0  0  0  0
  1  2  1  0  0  0  0
  1  3  1  0  0  0  0
  1  4  1  0  0  0  0
  1  5  1  0  0  0  0
  5  6  1  0  0  0  0
  5  7  1  0  0  0  0
  5  8  1  0  0  0  0
  8  9  1  0  0  0  0
  8 10  1  0  0  0  0
  8 11  1  0  0  0  0
 11 12  1  0  0  0  0
 11 13  1  0  0  0  0
 11 14  1  0  0  0  0
 14 15  1  0  0  0  0
 14 16  1  0  0  0  0
 14 17  1  0  0  0  0
 17 18  1  0  0  0  0
 17 19  1  0  0  0  0
 19 20  1  0  0  0  0
 19 21  1  0  0  0  0
 19 22  1  0  0  0  0
 17 23  1  0  0  0  0
 23 24  1  0  0  0  0
 23 25  1  0  0  0  0
 23 26  1  0  0  0  0
M  END
> <VM2 Rank>
51

> <Conf_Id>
675

> <Probability>
0.03

> <Sum Probability>
99.56

> <Delta G>
3.791

> <G>
27.501

> <E>
-5.082

> <-TS>
32.582

> <U+W>
-26.543

> <U>
27.399

> <W>
-53.943

> <W(PB)>
-56.246

> <W(SA)>
2.303

> <Valence>
5.205

> <Coulomb>
21.096

> <VdW>
1.098

> <VdW6>
-8.389

> <VdW12>
9.487

> <Bond>
0.270

> <Angle>
1.912

> <Pdih>
3.023

> <Idih>
0.000

> <Tether>
0.000

$$$$
VeraChem MOL file


 26 25  0  0  0  0  0  0  0  0999 V2000     
   21.1399   19.2457   19.7806 C   0  0  0  0  0  0  0  0  0  0  0  0
   21.6192   20.1533   20.1699 H   0  0  0  0  0  0  0  0  0  0  0  0
   21.6622   18.3752   20.1964 H   0  0  0  0  0  0  0  0  0  0  0  0
   21.2857   19.2294   18.6927 H   0  0  0  0  0  0  0  0  0  0  0  0
   19.6334   19.2213   20.1248 C   0  0  0  0  0  0  0  0  0  0  0  0
   19.1831   18.2926   19.7474 H   0  0  0  0  0  0  0  0  0  0  0  0
   19.1346   20.0431   19.5922 H   0  0  0  0  0  0  0  0  0  0  0  0
   19.3477   19.3644   21.6391 C   0  0  0  0  0  0  0  0  0  0  0  0
   19.7786   20.3092   21.9958 H   0  0  0  0  0  0  0  0  0  0  0  0
   18.2610   19.4378   21.7832 H   0  0  0  0  0  0  0  0  0  0  0  0
   19.8926   18.1837   22.4799 C   0  0  0  0  0  0  0  0  0  0  0  0
   20.9902   18.1776   22.4453 H   0  0  0  0  0  0  0  0  0  0  0  0
   19.5642   17.2391   22.0249 H   0  0  0  0  0  0  0  0  0  0  0  0
   19.4366   18.1984   23.9613 C   0  0  0  0  0  0  0  0  0  0  0  0
   18.3426   18.1245   24.0216 H   0  0  0  0  0  0  0  0  0  0  0  0
   19.8205   17.2824   24.4297 H   0  0  0  0  0  0  0  0  0  0  0  0
   19.9419   19.4251   24.7594 C   0  0  1  0  0  0  0  0  0  0  0  0
   20.8024   19.8460   24.2303 H   0  0  0  0  0  0  0  0  0  0  0  0
   18.8574   20.5111   24.8833 C   0  0  0  0  0  0  0  0  0  0  0  0
   17.9922   20.1425   25.4485 H   0  0  0  0  0  0  0  0  0  0  0  0
   18.5020   20.8407   23.9011 H   0  0  0  0  0  0  0  0  0  0  0  0
   19.2515   21.3923   25.4043 H   0  0  0  0  0  0  0  0  0  0  0  0
   20.4385   19.0382   26.1256 N   0  3  0  0  0  0  0  0  0  0  0  0
   21.1958   18.3510   26.0706 H   0  0  0  0  0  0  0  0  0  0  0  0
   20.8004   19.8491   26.6355 H   0  0  0  0  0  0  0  0  0  0  0  0
   19.6917   18.6290   26.6935 H   0  0  0  0  0  0  0  0  0  0  0  0
  1  2  1  0  0  0  0
  1  3  1  0  0  0  0
  1  4  1  0  0  0  0
  1  5  1  0  0  0  0
  5  6  1  0  0  0  0
  5  7  1  0  0  0  0
  5  8  1  0  0  0  0
  8  9  1  0  0  0  0
  8 10  1  0  0  0  0
  8 11  1  0  0  0  0
 11 12  1  0  0  0  0
 11 13  1  0  0  0  0
 11 14  1  0  0  0  0
 14 15  1  0  0  0  0
 14 16  1  0  0  0  0
 14 17  1  0  0  0  0
 17 18  1  0  0  0  0
 17 19  1  0  0  0  0
 19 20  1  0  0  0  0
 19 21  1  0  0  0  0
 19 22  1  0  0  0  0
 17 23  1  0  0  0  0
 23 24  1  0  0  0  0
 23 25  1  0  0  0  0
 23 26  1  0  0  0  0
M  END
> <VM2 Rank>
52

> <Conf_Id>
190

> <Probability>
0.03

> <Sum Probability>
99.59

> <Delta G>
3.791

> <G>
27.501

> <E>
-5.330

> <-TS>
32.831

> <U+W>
-26.792

> <U>
27.317

> <W>
-54.109

> <W(PB)>
-56.369

> <W(SA)>
2.261

> <Valence>
6.336

> <Coulomb>
19.872

> <VdW>
1.110

> <VdW6>
-8.501

> <VdW12>
9.611

> <Bond>
0.243

> <Angle>
1.598

> <Pdih>
4.495

> <Idih>
0.000

> <Tether>
0.000

$$$$
VeraChem MOL file


 26 25  0  0  0  0  0  0  0  0999 V2000     
   19.8844   20.0811   19.7710 C   0  0  0  0  0  0  0  0  0  0  0  0
   20.0008   20.2232   18.6888 H   0  0  0  0  0  0  0  0  0  0  0  0
   18.9206   20.5167   20.0648 H   0  0  0  0  0  0  0  0  0  0  0  0
   20.6832   20.6477   20.2650 H   0  0  0  0  0  0  0  0  0  0  0  0
   19.9474   18.5786   20.1284 C   0  0  0  0  0  0  0  0  0  0  0  0
   20.9308   18.1728   19.8525 H   0  0  0  0  0  0  0  0  0  0  0  0
   19.2100   18.0392   19.5175 H   0  0  0  0  0  0  0  0  0  0  0  0
   19.6603   18.2907   21.6216 C   0  0  0  0  0  0  0  0  0  0  0  0
   18.6720   18.6881   21.8815 H   0  0  0  0  0  0  0  0  0  0  0  0
   19.5956   17.2024   21.7578 H   0  0  0  0  0  0  0  0  0  0  0  0
   20.7471   18.8507   22.5759 C   0  0  0  0  0  0  0  0  0  0  0  0
   20.8505   19.9374   22.4600 H   0  0  0  0  0  0  0  0  0  0  0  0
   21.7141   18.4210   22.2801 H   0  0  0  0  0  0  0  0  0  0  0  0
   20.4921   18.5066   24.0676 C   0  0  0  0  0  0  0  0  0  0  0  0
   19.9193   17.5737   24.1520 H   0  0  0  0  0  0  0  0  0  0  0  0
   21.4646   18.3028   24.5350 H   0  0  0  0  0  0  0  0  0  0  0  0
   19.8094   19.6286   24.8868 C   0  0  1  0  0  0  0  0  0  0  0  0
   20.4363   20.5236   24.8256 H   0  0  0  0  0  0  0  0  0  0  0  0
   18.4101   19.9879   24.3591 C   0  0  0  0  0  0  0  0  0  0  0  0
   17.7651   19.1021   24.3064 H   0  0  0  0  0  0  0  0  0  0  0  0
   18.4700   20.4369   23.3609 H   0  0  0  0  0  0  0  0  0  0  0  0
   17.9265   20.7231   25.0139 H   0  0  0  0  0  0  0  0  0  0  0  0
   19.7372   19.2637   26.3437 N   0  3  0  0  0  0  0  0  0  0  0  0
   20.6649   19.0672   26.7301 H   0  0  0  0  0  0  0  0  0  0  0  0
   19.3307   20.0215   26.8995 H   0  0  0  0  0  0  0  0  0  0  0  0
   19.1595   18.4322   26.4930 H   0  0  0  0  0  0  0  0  0  0  0  0
  1  2  1  0  0  0  0
  1  3  1  0  0  0  0
  1  4  1  0  0  0  0
  1  5  1  0  0  0  0
  5  6  1  0  0  0  0
  5  7  1  0  0  0  0
  5  8  1  0  0  0  0
  8  9  1  0  0  0  0
  8 10  1  0  0  0  0
  8 11  1  0  0  0  0
 11 12  1  0  0  0  0
 11 13  1  0  0  0  0
 11 14  1  0  0  0  0
 14 15  1  0  0  0  0
 14 16  1  0  0  0  0
 14 17  1  0  0  0  0
 17 18  1  0  0  0  0
 17 19  1  0  0  0  0
 19 20  1  0  0  0  0
 19 21  1  0  0  0  0
 19 22  1  0  0  0  0
 17 23  1  0  0  0  0
 23 24  1  0  0  0  0
 23 25  1  0  0  0  0
 23 26  1  0  0  0  0
M  END
> <VM2 Rank>
53

> <Conf_Id>
731

> <Probability>
0.03

> <Sum Probability>
99.62

> <Delta G>
3.823

> <G>
27.533

> <E>
-5.392

> <-TS>
32.925

> <U+W>
-26.853

> <U>
27.193

> <W>
-54.046

> <W(PB)>
-56.289

> <W(SA)>
2.242

> <Valence>
6.324

> <Coulomb>
19.778

> <VdW>
1.091

> <VdW6>
-8.628

> <VdW12>
9.718

> <Bond>
0.275

> <Angle>
1.904

> <Pdih>
4.144

> <Idih>
0.000

> <Tether>
0.000

$$$$
VeraChem MOL file


 26 25  0  0  0  0  0  0  0  0999 V2000     
   20.0422   17.6614   20.2047 C   0  0  0  0  0  0  0  0  0  0  0  0
   20.2349   17.2702   19.1974 H   0  0  0  0  0  0  0  0  0  0  0  0
   20.8343   17.2821   20.8619 H   0  0  0  0  0  0  0  0  0  0  0  0
   19.0839   17.2495   20.5469 H   0  0  0  0  0  0  0  0  0  0  0  0
   20.0087   19.2066   20.1870 C   0  0  0  0  0  0  0  0  0  0  0  0
   19.2885   19.5354   19.4247 H   0  0  0  0  0  0  0  0  0  0  0  0
   20.9875   19.5949   19.8726 H   0  0  0  0  0  0  0  0  0  0  0  0
   19.6092   19.8275   21.5471 C   0  0  0  0  0  0  0  0  0  0  0  0
   19.4877   20.9109   21.4102 H   0  0  0  0  0  0  0  0  0  0  0  0
   18.6244   19.4454   21.8400 H   0  0  0  0  0  0  0  0  0  0  0  0
   20.6521   19.5766   22.6671 C   0  0  0  0  0  0  0  0  0  0  0  0
   21.6211   19.9606   22.3195 H   0  0  0  0  0  0  0  0  0  0  0  0
   20.7951   18.5017   22.8296 H   0  0  0  0  0  0  0  0  0  0  0  0
   20.3025   20.2812   24.0080 C   0  0  0  0  0  0  0  0  0  0  0  0
   21.2385   20.6112   24.4776 H   0  0  0  0  0  0  0  0  0  0  0  0
   19.7388   21.2025   23.8112 H   0  0  0  0  0  0  0  0  0  0  0  0
   19.5390   19.4247   25.0489 C   0  0  1  0  0  0  0  0  0  0  0  0
   19.3575   20.0639   25.9185 H   0  0  0  0  0  0  0  0  0  0  0  0
   18.1721   18.9399   24.5397 C   0  0  0  0  0  0  0  0  0  0  0  0
   17.5804   19.7777   24.1506 H   0  0  0  0  0  0  0  0  0  0  0  0
   17.6010   18.4802   25.3556 H   0  0  0  0  0  0  0  0  0  0  0  0
   18.2816   18.1907   23.7467 H   0  0  0  0  0  0  0  0  0  0  0  0
   20.3622   18.2702   25.5515 N   0  3  0  0  0  0  0  0  0  0  0  0
   21.2531   18.5869   25.9444 H   0  0  0  0  0  0  0  0  0  0  0  0
   19.8712   17.7530   26.2862 H   0  0  0  0  0  0  0  0  0  0  0  0
   20.5745   17.6091   24.8005 H   0  0  0  0  0  0  0  0  0  0  0  0
  1  2  1  0  0  0  0
  1  3  1  0  0  0  0
  1  4  1  0  0  0  0
  1  5  1  0  0  0  0
  5  6  1  0  0  0  0
  5  7  1  0  0  0  0
  5  8  1  0  0  0  0
  8  9  1  0  0  0  0
  8 10  1  0  0  0  0
  8 11  1  0  0  0  0
 11 12  1  0  0  0  0
 11 13  1  0  0  0  0
 11 14  1  0  0  0  0
 14 15  1  0  0  0  0
 14 16  1  0  0  0  0
 14 17  1  0  0  0  0
 17 18  1  0  0  0  0
 17 19  1  0  0  0  0
 19 20  1  0  0  0  0
 19 21  1  0  0  0  0
 19 22  1  0  0  0  0
 17 23  1  0  0  0  0
 23 24  1  0  0  0  0
 23 25  1  0  0  0  0
 23 26  1  0  0  0  0
M  END
> <VM2 Rank>
54

> <Conf_Id>
203

> <Probability>
0.03

> <Sum Probability>
99.65

> <Delta G>
3.834

> <G>
27.544

> <E>
-5.437

> <-TS>
32.980

> <U+W>
-26.898

> <U>
27.552

> <W>
-54.451

> <W(PB)>
-56.691

> <W(SA)>
2.240

> <Valence>
6.310

> <Coulomb>
20.199

> <VdW>
1.044

> <VdW6>
-9.081

> <VdW12>
10.125

> <Bond>
0.308

> <Angle>
2.043

> <Pdih>
3.958

> <Idih>
0.000

> <Tether>
0.000

$$$$
VeraChem MOL file


 26 25  0  0  0  0  0  0  0  0999 V2000     
   19.1313   19.7162   20.1965 C   0  0  0  0  0  0  0  0  0  0  0  0
   19.6903   20.6593   20.2491 H   0  0  0  0  0  0  0  0  0  0  0  0
   18.5560   19.7185   19.2617 H   0  0  0  0  0  0  0  0  0  0  0  0
   18.4113   19.6888   21.0237 H   0  0  0  0  0  0  0  0  0  0  0  0
   20.0831   18.5010   20.2410 C   0  0  0  0  0  0  0  0  0  0  0  0
   20.6709   18.4794   19.3127 H   0  0  0  0  0  0  0  0  0  0  0  0
   19.4911   17.5751   20.2474 H   0  0  0  0  0  0  0  0  0  0  0  0
   21.0621   18.4995   21.4430 C   0  0  0  0  0  0  0  0  0  0  0  0
   21.7095   17.6176   21.3403 H   0  0  0  0  0  0  0  0  0  0  0  0
   21.7334   19.3672   21.3840 H   0  0  0  0  0  0  0  0  0  0  0  0
   20.3788   18.4387   22.8342 C   0  0  0  0  0  0  0  0  0  0  0  0
   21.0043   17.8241   23.4950 H   0  0  0  0  0  0  0  0  0  0  0  0
   19.4186   17.9143   22.7478 H   0  0  0  0  0  0  0  0  0  0  0  0
   20.1946   19.8372   23.4864 C   0  0  0  0  0  0  0  0  0  0  0  0
   21.1785   20.3122   23.5938 H   0  0  0  0  0  0  0  0  0  0  0  0
   19.6208   20.4931   22.8222 H   0  0  0  0  0  0  0  0  0  0  0  0
   19.5082   19.8231   24.8727 C   0  0  1  0  0  0  0  0  0  0  0  0
   19.4947   20.8546   25.2383 H   0  0  0  0  0  0  0  0  0  0  0  0
   18.0490   19.3419   24.7892 C   0  0  0  0  0  0  0  0  0  0  0  0
   17.9853   18.2807   24.5216 H   0  0  0  0  0  0  0  0  0  0  0  0
   17.4900   19.9192   24.0423 H   0  0  0  0  0  0  0  0  0  0  0  0
   17.5463   19.4738   25.7552 H   0  0  0  0  0  0  0  0  0  0  0  0
   20.2809   19.0305   25.8910 N   0  3  0  0  0  0  0  0  0  0  0  0
   20.3306   18.0421   25.6325 H   0  0  0  0  0  0  0  0  0  0  0  0
   21.2410   19.3739   25.9845 H   0  0  0  0  0  0  0  0  0  0  0  0
   19.8454   19.0844   26.8161 H   0  0  0  0  0  0  0  0  0  0  0  0
  1  2  1  0  0  0  0
  1  3  1  0  0  0  0
  1  4  1  0  0  0  0
  1  5  1  0  0  0  0
  5  6  1  0  0  0  0
  5  7  1  0  0  0  0
  5  8  1  0  0  0  0
  8  9  1  0  0  0  0
  8 10  1  0  0  0  0
  8 11  1  0  0  0  0
 11 12  1  0  0  0  0
 11 13  1  0  0  0  0
 11 14  1  0  0  0  0
 14 15  1  0  0  0  0
 14 16  1  0  0  0  0
 14 17  1  0  0  0  0
 17 18  1  0  0  0  0
 17 19  1  0  0  0  0
 19 20  1  0  0  0  0
 19 21  1  0  0  0  0
 19 22  1  0  0  0  0
 17 23  1  0  0  0  0
 23 24  1  0  0  0  0
 23 25  1  0  0  0  0
 23 26  1  0  0  0  0
M  END
> <VM2 Rank>
55

> <Conf_Id>
1023

> <Probability>
0.03

> <Sum Probability>
99.67

> <Delta G>
3.879

> <G>
27.589

> <E>
-5.461

> <-TS>
33.050

> <U+W>
-26.923

> <U>
27.276

> <W>
-54.198

> <W(PB)>
-56.422

> <W(SA)>
2.223

> <Valence>
6.240

> <Coulomb>
19.962

> <VdW>
1.074

> <VdW6>
-9.126

> <VdW12>
10.201

> <Bond>
0.305

> <Angle>
1.933

> <Pdih>
4.002

> <Idih>
0.000

> <Tether>
0.000

$$$$
VeraChem MOL file


 26 25  0  0  0  0  0  0  0  0999 V2000     
   21.3205   18.3497   20.5399 C   0  0  0  0  0  0  0  0  0  0  0  0
   22.0909   18.2877   19.7605 H   0  0  0  0  0  0  0  0  0  0  0  0
   21.7958   18.7629   21.4382 H   0  0  0  0  0  0  0  0  0  0  0  0
   20.9830   17.3287   20.7600 H   0  0  0  0  0  0  0  0  0  0  0  0
   20.1463   19.2351   20.0684 C   0  0  0  0  0  0  0  0  0  0  0  0
   19.8039   18.8735   19.0887 H   0  0  0  0  0  0  0  0  0  0  0  0
   20.5062   20.2605   19.9050 H   0  0  0  0  0  0  0  0  0  0  0  0
   18.9350   19.2582   21.0353 C   0  0  0  0  0  0  0  0  0  0  0  0
   18.1524   19.8731   20.5696 H   0  0  0  0  0  0  0  0  0  0  0  0
   18.5046   18.2514   21.1267 H   0  0  0  0  0  0  0  0  0  0  0  0
   19.2391   19.8439   22.4390 C   0  0  0  0  0  0  0  0  0  0  0  0
   18.3583   20.4108   22.7680 H   0  0  0  0  0  0  0  0  0  0  0  0
   20.0627   20.5683   22.3737 H   0  0  0  0  0  0  0  0  0  0  0  0
   19.5564   18.7583   23.5007 C   0  0  0  0  0  0  0  0  0  0  0  0
   18.6688   18.1318   23.6602 H   0  0  0  0  0  0  0  0  0  0  0  0
   20.3354   18.0899   23.1174 H   0  0  0  0  0  0  0  0  0  0  0  0
   20.0335   19.3338   24.8538 C   0  0  1  0  0  0  0  0  0  0  0  0
   20.8955   19.9814   24.6656 H   0  0  0  0  0  0  0  0  0  0  0  0
   18.9415   20.1671   25.5486 C   0  0  0  0  0  0  0  0  0  0  0  0
   18.0293   19.5771   25.7019 H   0  0  0  0  0  0  0  0  0  0  0  0
   18.6825   21.0549   24.9602 H   0  0  0  0  0  0  0  0  0  0  0  0
   19.2882   20.5180   26.5284 H   0  0  0  0  0  0  0  0  0  0  0  0
   20.5155   18.2419   25.7683 N   0  3  0  0  0  0  0  0  0  0  0  0
   21.2747   17.7014   25.3439 H   0  0  0  0  0  0  0  0  0  0  0  0
   20.8697   18.6222   26.6506 H   0  0  0  0  0  0  0  0  0  0  0  0
   19.7633   17.5873   25.9986 H   0  0  0  0  0  0  0  0  0  0  0  0
  1  2  1  0  0  0  0
  1  3  1  0  0  0  0
  1  4  1  0  0  0  0
  1  5  1  0  0  0  0
  5  6  1  0  0  0  0
  5  7  1  0  0  0  0
  5  8  1  0  0  0  0
  8  9  1  0  0  0  0
  8 10  1  0  0  0  0
  8 11  1  0  0  0  0
 11 12  1  0  0  0  0
 11 13  1  0  0  0  0
 11 14  1  0  0  0  0
 14 15  1  0  0  0  0
 14 16  1  0  0  0  0
 14 17  1  0  0  0  0
 17 18  1  0  0  0  0
 17 19  1  0  0  0  0
 19 20  1  0  0  0  0
 19 21  1  0  0  0  0
 19 22  1  0  0  0  0
 17 23  1  0  0  0  0
 23 24  1  0  0  0  0
 23 25  1  0  0  0  0
 23 26  1  0  0  0  0
M  END
> <VM2 Rank>
56

> <Conf_Id>
157

> <Probability>
0.03

> <Sum Probability>
99.70

> <Delta G>
3.882

> <G>
27.592

> <E>
-5.381

> <-TS>
32.972

> <U+W>
-26.843

> <U>
27.458

> <W>
-54.301

> <W(PB)>
-56.574

> <W(SA)>
2.272

> <Valence>
6.292

> <Coulomb>
20.019

> <VdW>
1.147

> <VdW6>
-8.552

> <VdW12>
9.699

> <Bond>
0.273

> <Angle>
1.838

> <Pdih>
4.181

> <Idih>
0.000

> <Tether>
0.000

$$$$
VeraChem MOL file


 26 25  0  0  0  0  0  0  0  0999 V2000     
   19.8013   20.4161   20.7481 C   0  0  0  0  0  0  0  0  0  0  0  0
   20.7045   20.9869   20.9999 H   0  0  0  0  0  0  0  0  0  0  0  0
   19.3793   20.8501   19.8325 H   0  0  0  0  0  0  0  0  0  0  0  0
   19.0683   20.5663   21.5470 H   0  0  0  0  0  0  0  0  0  0  0  0
   20.1317   18.9211   20.5305 C   0  0  0  0  0  0  0  0  0  0  0  0
   20.7842   18.8480   19.6491 H   0  0  0  0  0  0  0  0  0  0  0  0
   19.2201   18.3622   20.2773 H   0  0  0  0  0  0  0  0  0  0  0  0
   20.8576   18.2547   21.7280 C   0  0  0  0  0  0  0  0  0  0  0  0
   21.5171   17.4737   21.3249 H   0  0  0  0  0  0  0  0  0  0  0  0
   21.5277   18.9742   22.2168 H   0  0  0  0  0  0  0  0  0  0  0  0
   19.9248   17.5728   22.7654 C   0  0  0  0  0  0  0  0  0  0  0  0
   20.5455   17.0259   23.4876 H   0  0  0  0  0  0  0  0  0  0  0  0
   19.3261   16.8053   22.2559 H   0  0  0  0  0  0  0  0  0  0  0  0
   18.9680   18.5180   23.5365 C   0  0  0  0  0  0  0  0  0  0  0  0
   18.2204   18.9173   22.8404 H   0  0  0  0  0  0  0  0  0  0  0  0
   18.4034   17.9290   24.2713 H   0  0  0  0  0  0  0  0  0  0  0  0
   19.6808   19.6826   24.2594 C   0  0  1  0  0  0  0  0  0  0  0  0
   20.2467   20.2531   23.5171 H   0  0  0  0  0  0  0  0  0  0  0  0
   18.6510   20.6232   24.9045 C   0  0  0  0  0  0  0  0  0  0  0  0
   18.0566   20.1003   25.6642 H   0  0  0  0  0  0  0  0  0  0  0  0
   17.9635   21.0251   24.1499 H   0  0  0  0  0  0  0  0  0  0  0  0
   19.1499   21.4731   25.3863 H   0  0  0  0  0  0  0  0  0  0  0  0
   20.6728   19.1994   25.2815 N   0  3  0  0  0  0  0  0  0  0  0  0
   20.2143   18.6586   26.0194 H   0  0  0  0  0  0  0  0  0  0  0  0
   21.3828   18.5985   24.8545 H   0  0  0  0  0  0  0  0  0  0  0  0
   21.1595   19.9803   25.7306 H   0  0  0  0  0  0  0  0  0  0  0  0
  1  2  1  0  0  0  0
  1  3  1  0  0  0  0
  1  4  1  0  0  0  0
  1  5  1  0  0  0  0
  5  6  1  0  0  0  0
  5  7  1  0  0  0  0
  5  8  1  0  0  0  0
  8  9  1  0  0  0  0
  8 10  1  0  0  0  0
  8 11  1  0  0  0  0
 11 12  1  0  0  0  0
 11 13  1  0  0  0  0
 11 14  1  0  0  0  0
 14 15  1  0  0  0  0
 14 16  1  0  0  0  0
 14 17  1  0  0  0  0
 17 18  1  0  0  0  0
 17 19  1  0  0  0  0
 19 20  1  0  0  0  0
 19 21  1  0  0  0  0
 19 22  1  0  0  0  0
 17 23  1  0  0  0  0
 23 24  1  0  0  0  0
 23 25  1  0  0  0  0
 23 26  1  0  0  0  0
M  END
> <VM2 Rank>
57

> <Conf_Id>
746

> <Probability>
0.02

> <Sum Probability>
99.72

> <Delta G>
3.940

> <G>
27.650

> <E>
-5.738

> <-TS>
33.388

> <U+W>
-27.200

> <U>
26.996

> <W>
-54.196

> <W(PB)>
-56.396

> <W(SA)>
2.199

> <Valence>
6.014

> <Coulomb>
20.609

> <VdW>
0.374

> <VdW6>
-10.069

> <VdW12>
10.443

> <Bond>
0.292

> <Angle>
2.200

> <Pdih>
3.522

> <Idih>
0.000

> <Tether>
0.000

$$$$
VeraChem MOL file


 26 25  0  0  0  0  0  0  0  0999 V2000     
   20.6244   19.9522   19.9724 C   0  0  0  0  0  0  0  0  0  0  0  0
   21.5598   19.4968   19.6223 H   0  0  0  0  0  0  0  0  0  0  0  0
   20.2532   20.6060   19.1726 H   0  0  0  0  0  0  0  0  0  0  0  0
   20.8596   20.5848   20.8351 H   0  0  0  0  0  0  0  0  0  0  0  0
   19.5763   18.8671   20.3131 C   0  0  0  0  0  0  0  0  0  0  0  0
   19.3707   18.2967   19.3964 H   0  0  0  0  0  0  0  0  0  0  0  0
   18.6229   19.3330   20.5988 H   0  0  0  0  0  0  0  0  0  0  0  0
   20.0453   17.8799   21.4130 C   0  0  0  0  0  0  0  0  0  0  0  0
   19.6429   16.8860   21.1728 H   0  0  0  0  0  0  0  0  0  0  0  0
   21.1382   17.7703   21.3851 H   0  0  0  0  0  0  0  0  0  0  0  0
   19.5804   18.2353   22.8490 C   0  0  0  0  0  0  0  0  0  0  0  0
   19.9000   17.4253   23.5173 H   0  0  0  0  0  0  0  0  0  0  0  0
   18.4827   18.2414   22.8762 H   0  0  0  0  0  0  0  0  0  0  0  0
   20.1266   19.5885   23.3765 C   0  0  0  0  0  0  0  0  0  0  0  0
   21.2104   19.6334   23.2078 H   0  0  0  0  0  0  0  0  0  0  0  0
   19.6883   20.4084   22.7942 H   0  0  0  0  0  0  0  0  0  0  0  0
   19.8504   19.8614   24.8740 C   0  0  1  0  0  0  0  0  0  0  0  0
   20.2806   20.8395   25.1107 H   0  0  0  0  0  0  0  0  0  0  0  0
   18.3440   19.9286   25.1803 C   0  0  0  0  0  0  0  0  0  0  0  0
   17.8605   18.9529   25.0512 H   0  0  0  0  0  0  0  0  0  0  0  0
   17.8442   20.6500   24.5221 H   0  0  0  0  0  0  0  0  0  0  0  0
   18.1768   20.2513   26.2152 H   0  0  0  0  0  0  0  0  0  0  0  0
   20.5406   18.8750   25.7758 N   0  3  0  0  0  0  0  0  0  0  0  0
   21.5505   18.8551   25.6075 H   0  0  0  0  0  0  0  0  0  0  0  0
   20.3999   19.1084   26.7628 H   0  0  0  0  0  0  0  0  0  0  0  0
   20.1855   17.9268   25.6315 H   0  0  0  0  0  0  0  0  0  0  0  0
  1  2  1  0  0  0  0
  1  3  1  0  0  0  0
  1  4  1  0  0  0  0
  1  5  1  0  0  0  0
  5  6  1  0  0  0  0
  5  7  1  0  0  0  0
  5  8  1  0  0  0  0
  8  9  1  0  0  0  0
  8 10  1  0  0  0  0
  8 11  1  0  0  0  0
 11 12  1  0  0  0  0
 11 13  1  0  0  0  0
 11 14  1  0  0  0  0
 14 15  1  0  0  0  0
 14 16  1  0  0  0  0
 14 17  1  0  0  0  0
 17 18  1  0  0  0  0
 17 19  1  0  0  0  0
 19 20  1  0  0  0  0
 19 21  1  0  0  0  0
 19 22  1  0  0  0  0
 17 23  1  0  0  0  0
 23 24  1  0  0  0  0
 23 25  1  0  0  0  0
 23 26  1  0  0  0  0
M  END
> <VM2 Rank>
58

> <Conf_Id>
517

> <Probability>
0.02

> <Sum Probability>
99.74

> <Delta G>
3.955

> <G>
27.665

> <E>
-5.395

> <-TS>
33.060

> <U+W>
-26.857

> <U>
27.312

> <W>
-54.169

> <W(PB)>
-56.414

> <W(SA)>
2.245

> <Valence>
6.229

> <Coulomb>
19.943

> <VdW>
1.140

> <VdW6>
-9.000

> <VdW12>
10.140

> <Bond>
0.294

> <Angle>
1.968

> <Pdih>
3.967

> <Idih>
0.000

> <Tether>
0.000

$$$$
VeraChem MOL file


 26 25  0  0  0  0  0  0  0  0999 V2000     
   19.0519   19.2646   19.6049 C   0  0  0  0  0  0  0  0  0  0  0  0
   18.4196   20.1052   19.9189 H   0  0  0  0  0  0  0  0  0  0  0  0
   19.8041   19.6462   18.9022 H   0  0  0  0  0  0  0  0  0  0  0  0
   18.4182   18.5497   19.0643 H   0  0  0  0  0  0  0  0  0  0  0  0
   19.7204   18.5891   20.8209 C   0  0  0  0  0  0  0  0  0  0  0  0
   20.3195   17.7338   20.4785 H   0  0  0  0  0  0  0  0  0  0  0  0
   18.9402   18.1839   21.4778 H   0  0  0  0  0  0  0  0  0  0  0  0
   20.6226   19.5778   21.5970 C   0  0  0  0  0  0  0  0  0  0  0  0
   21.3788   19.9777   20.9074 H   0  0  0  0  0  0  0  0  0  0  0  0
   20.0389   20.4443   21.9329 H   0  0  0  0  0  0  0  0  0  0  0  0
   21.3555   18.9304   22.7983 C   0  0  0  0  0  0  0  0  0  0  0  0
   22.0590   19.6632   23.2173 H   0  0  0  0  0  0  0  0  0  0  0  0
   21.9747   18.1015   22.4285 H   0  0  0  0  0  0  0  0  0  0  0  0
   20.4479   18.4032   23.9419 C   0  0  0  0  0  0  0  0  0  0  0  0
   19.7782   17.6138   23.5779 H   0  0  0  0  0  0  0  0  0  0  0  0
   21.1062   17.9093   24.6688 H   0  0  0  0  0  0  0  0  0  0  0  0
   19.6452   19.5099   24.6696 C   0  0  1  0  0  0  0  0  0  0  0  0
   20.1426   20.4679   24.4895 H   0  0  0  0  0  0  0  0  0  0  0  0
   18.1951   19.6020   24.1605 C   0  0  0  0  0  0  0  0  0  0  0  0
   17.6542   18.6634   24.3343 H   0  0  0  0  0  0  0  0  0  0  0  0
   18.1557   19.8217   23.0888 H   0  0  0  0  0  0  0  0  0  0  0  0
   17.6551   20.4042   24.6783 H   0  0  0  0  0  0  0  0  0  0  0  0
   19.6495   19.3110   26.1608 N   0  3  0  0  0  0  0  0  0  0  0  0
   20.6021   19.2955   26.5363 H   0  0  0  0  0  0  0  0  0  0  0  0
   19.1463   20.0632   26.6398 H   0  0  0  0  0  0  0  0  0  0  0  0
   19.2007   18.4290   26.4222 H   0  0  0  0  0  0  0  0  0  0  0  0
  1  2  1  0  0  0  0
  1  3  1  0  0  0  0
  1  4  1  0  0  0  0
  1  5  1  0  0  0  0
  5  6  1  0  0  0  0
  5  7  1  0  0  0  0
  5  8  1  0  0  0  0
  8  9  1  0  0  0  0
  8 10  1  0  0  0  0
  8 11  1  0  0  0  0
 11 12  1  0  0  0  0
 11 13  1  0  0  0  0
 11 14  1  0  0  0  0
 14 15  1  0  0  0  0
 14 16  1  0  0  0  0
 14 17  1  0  0  0  0
 17 18  1  0  0  0  0
 17 19  1  0  0  0  0
 19 20  1  0  0  0  0
 19 21  1  0  0  0  0
 19 22  1  0  0  0  0
 17 23  1  0  0  0  0
 23 24  1  0  0  0  0
 23 25  1  0  0  0  0
 23 26  1  0  0  0  0
M  END
> <VM2 Rank>
59

> <Conf_Id>
548

> <Probability>
0.02

> <Sum Probability>
99.77

> <Delta G>
3.973

> <G>
27.683

> <E>
-5.492

> <-TS>
33.175

> <U+W>
-26.954

> <U>
27.330

> <W>
-54.284

> <W(PB)>
-56.506

> <W(SA)>
2.221

> <Valence>
6.518

> <Coulomb>
20.042

> <VdW>
0.770

> <VdW6>
-9.039

> <VdW12>
9.809

> <Bond>
0.256

> <Angle>
1.989

> <Pdih>
4.274

> <Idih>
0.000

> <Tether>
0.000

$$$$
VeraChem MOL file


 26 25  0  0  0  0  0  0  0  0999 V2000     
   20.6575   18.8942   19.3745 C   0  0  0  0  0  0  0  0  0  0  0  0
   20.4604   17.8242   19.2286 H   0  0  0  0  0  0  0  0  0  0  0  0
   20.7175   19.3626   18.3836 H   0  0  0  0  0  0  0  0  0  0  0  0
   21.6404   19.0017   19.8498 H   0  0  0  0  0  0  0  0  0  0  0  0
   19.5437   19.5547   20.2182 C   0  0  0  0  0  0  0  0  0  0  0  0
   18.6049   19.5294   19.6473 H   0  0  0  0  0  0  0  0  0  0  0  0
   19.7795   20.6166   20.3747 H   0  0  0  0  0  0  0  0  0  0  0  0
   19.3133   18.8636   21.5838 C   0  0  0  0  0  0  0  0  0  0  0  0
   18.4377   19.3220   22.0588 H   0  0  0  0  0  0  0  0  0  0  0  0
   19.0509   17.8094   21.4189 H   0  0  0  0  0  0  0  0  0  0  0  0
   20.5378   18.9494   22.5311 C   0  0  0  0  0  0  0  0  0  0  0  0
   20.8989   19.9848   22.6001 H   0  0  0  0  0  0  0  0  0  0  0  0
   21.3598   18.3696   22.0908 H   0  0  0  0  0  0  0  0  0  0  0  0
   20.2567   18.3874   23.9500 C   0  0  0  0  0  0  0  0  0  0  0  0
   19.4640   17.6286   23.9095 H   0  0  0  0  0  0  0  0  0  0  0  0
   21.1589   17.8590   24.2857 H   0  0  0  0  0  0  0  0  0  0  0  0
   19.9203   19.4570   25.0172 C   0  0  1  0  0  0  0  0  0  0  0  0
   20.7516   20.1674   25.0598 H   0  0  0  0  0  0  0  0  0  0  0  0
   18.6369   20.2407   24.6939 C   0  0  0  0  0  0  0  0  0  0  0  0
   18.7597   20.8387   23.7835 H   0  0  0  0  0  0  0  0  0  0  0  0
   18.3937   20.9366   25.5062 H   0  0  0  0  0  0  0  0  0  0  0  0
   17.7828   19.5660   24.5565 H   0  0  0  0  0  0  0  0  0  0  0  0
   19.8219   18.8411   26.3854 N   0  3  0  0  0  0  0  0  0  0  0  0
   19.0586   18.1612   26.4357 H   0  0  0  0  0  0  0  0  0  0  0  0
   20.6850   18.3542   26.6432 H   0  0  0  0  0  0  0  0  0  0  0  0
   19.6468   19.5501   27.1030 H   0  0  0  0  0  0  0  0  0  0  0  0
  1  2  1  0  0  0  0
  1  3  1  0  0  0  0
  1  4  1  0  0  0  0
  1  5  1  0  0  0  0
  5  6  1  0  0  0  0
  5  7  1  0  0  0  0
  5  8  1  0  0  0  0
  8  9  1  0  0  0  0
  8 10  1  0  0  0  0
  8 11  1  0  0  0  0
 11 12  1  0  0  0  0
 11 13  1  0  0  0  0
 11 14  1  0  0  0  0
 14 15  1  0  0  0  0
 14 16  1  0  0  0  0
 14 17  1  0  0  0  0
 17 18  1  0  0  0  0
 17 19  1  0  0  0  0
 19 20  1  0  0  0  0
 19 21  1  0  0  0  0
 19 22  1  0  0  0  0
 17 23  1  0  0  0  0
 23 24  1  0  0  0  0
 23 25  1  0  0  0  0
 23 26  1  0  0  0  0
M  END
> <VM2 Rank>
60

> <Conf_Id>
991

> <Probability>
0.02

> <Sum Probability>
99.79

> <Delta G>
4.005

> <G>
27.715

> <E>
-5.269

> <-TS>
32.984

> <U+W>
-26.731

> <U>
27.221

> <W>
-53.952

> <W(PB)>
-56.213

> <W(SA)>
2.261

> <Valence>
6.368

> <Coulomb>
19.698

> <VdW>
1.155

> <VdW6>
-8.532

> <VdW12>
9.687

> <Bond>
0.272

> <Angle>
1.847

> <Pdih>
4.249

> <Idih>
0.000

> <Tether>
0.000

$$$$
VeraChem MOL file


 26 25  0  0  0  0  0  0  0  0999 V2000     
   20.0273   18.5896   19.3315 C   0  0  0  0  0  0  0  0  0  0  0  0
   20.3659   17.6021   19.6680 H   0  0  0  0  0  0  0  0  0  0  0  0
   18.9350   18.5619   19.2257 H   0  0  0  0  0  0  0  0  0  0  0  0
   20.4562   18.7624   18.3359 H   0  0  0  0  0  0  0  0  0  0  0  0
   20.4632   19.7055   20.3083 C   0  0  0  0  0  0  0  0  0  0  0  0
   20.2151   20.6792   19.8631 H   0  0  0  0  0  0  0  0  0  0  0  0
   21.5560   19.6905   20.4242 H   0  0  0  0  0  0  0  0  0  0  0  0
   19.7870   19.6102   21.6975 C   0  0  0  0  0  0  0  0  0  0  0  0
   20.0487   20.5146   22.2619 H   0  0  0  0  0  0  0  0  0  0  0  0
   18.6953   19.6202   21.5751 H   0  0  0  0  0  0  0  0  0  0  0  0
   20.2135   18.3599   22.5068 C   0  0  0  0  0  0  0  0  0  0  0  0
   21.3028   18.3717   22.6505 H   0  0  0  0  0  0  0  0  0  0  0  0
   19.9891   17.4542   21.9290 H   0  0  0  0  0  0  0  0  0  0  0  0
   19.5156   18.2312   23.8848 C   0  0  0  0  0  0  0  0  0  0  0  0
   18.4305   18.1312   23.7485 H   0  0  0  0  0  0  0  0  0  0  0  0
   19.8448   17.2841   24.3324 H   0  0  0  0  0  0  0  0  0  0  0  0
   19.8346   19.3919   24.8583 C   0  0  1  0  0  0  0  0  0  0  0  0
   20.7302   19.9055   24.4953 H   0  0  0  0  0  0  0  0  0  0  0  0
   18.6783   20.4061   24.9289 C   0  0  0  0  0  0  0  0  0  0  0  0
   18.4321   20.8048   23.9385 H   0  0  0  0  0  0  0  0  0  0  0  0
   18.9471   21.2544   25.5703 H   0  0  0  0  0  0  0  0  0  0  0  0
   17.7723   19.9438   25.3404 H   0  0  0  0  0  0  0  0  0  0  0  0
   20.1684   18.8935   26.2378 N   0  3  0  0  0  0  0  0  0  0  0  0
   20.9669   18.2524   26.2237 H   0  0  0  0  0  0  0  0  0  0  0  0
   20.4092   19.6653   26.8663 H   0  0  0  0  0  0  0  0  0  0  0  0
   19.3793   18.3938   26.6566 H   0  0  0  0  0  0  0  0  0  0  0  0
  1  2  1  0  0  0  0
  1  3  1  0  0  0  0
  1  4  1  0  0  0  0
  1  5  1  0  0  0  0
  5  6  1  0  0  0  0
  5  7  1  0  0  0  0
  5  8  1  0  0  0  0
  8  9  1  0  0  0  0
  8 10  1  0  0  0  0
  8 11  1  0  0  0  0
 11 12  1  0  0  0  0
 11 13  1  0  0  0  0
 11 14  1  0  0  0  0
 14 15  1  0  0  0  0
 14 16  1  0  0  0  0
 14 17  1  0  0  0  0
 17 18  1  0  0  0  0
 17 19  1  0  0  0  0
 19 20  1  0  0  0  0
 19 21  1  0  0  0  0
 19 22  1  0  0  0  0
 17 23  1  0  0  0  0
 23 24  1  0  0  0  0
 23 25  1  0  0  0  0
 23 26  1  0  0  0  0
M  END
> <VM2 Rank>
61

> <Conf_Id>
101

> <Probability>
0.02

> <Sum Probability>
99.81

> <Delta G>
4.009

> <G>
27.719

> <E>
-5.019

> <-TS>
32.738

> <U+W>
-26.481

> <U>
27.496

> <W>
-53.977

> <W(PB)>
-56.267

> <W(SA)>
2.290

> <Valence>
6.471

> <Coulomb>
19.839

> <VdW>
1.185

> <VdW6>
-8.405

> <VdW12>
9.590

> <Bond>
0.248

> <Angle>
1.620

> <Pdih>
4.603

> <Idih>
0.000

> <Tether>
0.000

$$$$
VeraChem MOL file


 26 25  0  0  0  0  0  0  0  0999 V2000     
   20.4581   17.6857   20.2553 C   0  0  0  0  0  0  0  0  0  0  0  0
   20.3781   17.2202   21.2439 H   0  0  0  0  0  0  0  0  0  0  0  0
   19.5730   17.3960   19.6741 H   0  0  0  0  0  0  0  0  0  0  0  0
   21.3378   17.2591   19.7564 H   0  0  0  0  0  0  0  0  0  0  0  0
   20.5794   19.2250   20.3437 C   0  0  0  0  0  0  0  0  0  0  0  0
   20.6668   19.6169   19.3207 H   0  0  0  0  0  0  0  0  0  0  0  0
   21.5104   19.5068   20.8550 H   0  0  0  0  0  0  0  0  0  0  0  0
   19.3619   19.8978   21.0287 C   0  0  0  0  0  0  0  0  0  0  0  0
   19.1616   20.8472   20.5130 H   0  0  0  0  0  0  0  0  0  0  0  0
   18.4595   19.2879   20.8843 H   0  0  0  0  0  0  0  0  0  0  0  0
   19.5530   20.2170   22.5344 C   0  0  0  0  0  0  0  0  0  0  0  0
   18.6576   20.7512   22.8760 H   0  0  0  0  0  0  0  0  0  0  0  0
   20.3920   20.9161   22.6549 H   0  0  0  0  0  0  0  0  0  0  0  0
   19.7912   18.9709   23.4246 C   0  0  0  0  0  0  0  0  0  0  0  0
   18.9844   18.2422   23.2707 H   0  0  0  0  0  0  0  0  0  0  0  0
   20.7217   18.4872   23.1045 H   0  0  0  0  0  0  0  0  0  0  0  0
   19.9214   19.2950   24.9309 C   0  0  1  0  0  0  0  0  0  0  0  0
   20.6740   20.0805   25.0495 H   0  0  0  0  0  0  0  0  0  0  0  0
   18.5962   19.7915   25.5375 C   0  0  0  0  0  0  0  0  0  0  0  0
   18.2856   20.7455   25.0969 H   0  0  0  0  0  0  0  0  0  0  0  0
   18.7034   19.9548   26.6170 H   0  0  0  0  0  0  0  0  0  0  0  0
   17.7911   19.0625   25.3829 H   0  0  0  0  0  0  0  0  0  0  0  0
   20.4269   18.1050   25.6988 N   0  3  0  0  0  0  0  0  0  0  0  0
   21.3316   17.7827   25.3434 H   0  0  0  0  0  0  0  0  0  0  0  0
   20.5516   18.3258   26.6909 H   0  0  0  0  0  0  0  0  0  0  0  0
   19.7753   17.3179   25.6411 H   0  0  0  0  0  0  0  0  0  0  0  0
  1  2  1  0  0  0  0
  1  3  1  0  0  0  0
  1  4  1  0  0  0  0
  1  5  1  0  0  0  0
  5  6  1  0  0  0  0
  5  7  1  0  0  0  0
  5  8  1  0  0  0  0
  8  9  1  0  0  0  0
  8 10  1  0  0  0  0
  8 11  1  0  0  0  0
 11 12  1  0  0  0  0
 11 13  1  0  0  0  0
 11 14  1  0  0  0  0
 14 15  1  0  0  0  0
 14 16  1  0  0  0  0
 14 17  1  0  0  0  0
 17 18  1  0  0  0  0
 17 19  1  0  0  0  0
 19 20  1  0  0  0  0
 19 21  1  0  0  0  0
 19 22  1  0  0  0  0
 17 23  1  0  0  0  0
 23 24  1  0  0  0  0
 23 25  1  0  0  0  0
 23 26  1  0  0  0  0
M  END
> <VM2 Rank>
62

> <Conf_Id>
849

> <Probability>
0.02

> <Sum Probability>
99.83

> <Delta G>
4.022

> <G>
27.732

> <E>
-5.118

> <-TS>
32.850

> <U+W>
-26.580

> <U>
27.653

> <W>
-54.233

> <W(PB)>
-56.524

> <W(SA)>
2.290

> <Valence>
6.436

> <Coulomb>
19.986

> <VdW>
1.232

> <VdW6>
-8.460

> <VdW12>
9.692

> <Bond>
0.276

> <Angle>
2.012

> <Pdih>
4.149

> <Idih>
0.000

> <Tether>
0.000

$$$$
VeraChem MOL file


 26 25  0  0  0  0  0  0  0  0999 V2000     
   19.6185   18.0421   19.5421 C   0  0  0  0  0  0  0  0  0  0  0  0
   18.6752   18.5627   19.3314 H   0  0  0  0  0  0  0  0  0  0  0  0
   20.1231   17.8587   18.5846 H   0  0  0  0  0  0  0  0  0  0  0  0
   19.3792   17.0681   19.9886 H   0  0  0  0  0  0  0  0  0  0  0  0
   20.5157   18.8775   20.4797 C   0  0  0  0  0  0  0  0  0  0  0  0
   20.7664   19.8292   19.9904 H   0  0  0  0  0  0  0  0  0  0  0  0
   21.4639   18.3469   20.6455 H   0  0  0  0  0  0  0  0  0  0  0  0
   19.8271   19.1518   21.8350 C   0  0  0  0  0  0  0  0  0  0  0  0
   18.8844   19.6897   21.6638 H   0  0  0  0  0  0  0  0  0  0  0  0
   19.5751   18.1912   22.2998 H   0  0  0  0  0  0  0  0  0  0  0  0
   20.7314   19.9747   22.7819 C   0  0  0  0  0  0  0  0  0  0  0  0
   21.1028   20.8522   22.2346 H   0  0  0  0  0  0  0  0  0  0  0  0
   21.6239   19.3895   23.0411 H   0  0  0  0  0  0  0  0  0  0  0  0
   20.0353   20.4872   24.0749 C   0  0  0  0  0  0  0  0  0  0  0  0
   20.7683   21.0970   24.6192 H   0  0  0  0  0  0  0  0  0  0  0  0
   19.2271   21.1807   23.8076 H   0  0  0  0  0  0  0  0  0  0  0  0
   19.4985   19.4234   25.0677 C   0  0  1  0  0  0  0  0  0  0  0  0
   19.4721   19.9007   26.0522 H   0  0  0  0  0  0  0  0  0  0  0  0
   18.0521   18.9957   24.7563 C   0  0  0  0  0  0  0  0  0  0  0  0
   17.9697   18.4504   23.8117 H   0  0  0  0  0  0  0  0  0  0  0  0
   17.3917   19.8699   24.7028 H   0  0  0  0  0  0  0  0  0  0  0  0
   17.6686   18.3437   25.5506 H   0  0  0  0  0  0  0  0  0  0  0  0
   20.4093   18.2355   25.2164 N   0  3  0  0  0  0  0  0  0  0  0  0
   20.5022   17.7293   24.3325 H   0  0  0  0  0  0  0  0  0  0  0  0
   21.3484   18.5197   25.5094 H   0  0  0  0  0  0  0  0  0  0  0  0
   20.0560   17.5770   25.9165 H   0  0  0  0  0  0  0  0  0  0  0  0
  1  2  1  0  0  0  0
  1  3  1  0  0  0  0
  1  4  1  0  0  0  0
  1  5  1  0  0  0  0
  5  6  1  0  0  0  0
  5  7  1  0  0  0  0
  5  8  1  0  0  0  0
  8  9  1  0  0  0  0
  8 10  1  0  0  0  0
  8 11  1  0  0  0  0
 11 12  1  0  0  0  0
 11 13  1  0  0  0  0
 11 14  1  0  0  0  0
 14 15  1  0  0  0  0
 14 16  1  0  0  0  0
 14 17  1  0  0  0  0
 17 18  1  0  0  0  0
 17 19  1  0  0  0  0
 19 20  1  0  0  0  0
 19 21  1  0  0  0  0
 19 22  1  0  0  0  0
 17 23  1  0  0  0  0
 23 24  1  0  0  0  0
 23 25  1  0  0  0  0
 23 26  1  0  0  0  0
M  END
> <VM2 Rank>
63

> <Conf_Id>
1084

> <Probability>
0.02

> <Sum Probability>
99.85

> <Delta G>
4.049

> <G>
27.759

> <E>
-5.289

> <-TS>
33.048

> <U+W>
-26.751

> <U>
27.376

> <W>
-54.127

> <W(PB)>
-56.398

> <W(SA)>
2.271

> <Valence>
5.849

> <Coulomb>
20.574

> <VdW>
0.953

> <VdW6>
-8.734

> <VdW12>
9.687

> <Bond>
0.283

> <Angle>
2.366

> <Pdih>
3.200

> <Idih>
0.000

> <Tether>
0.000

$$$$
VeraChem MOL file


 26 25  0  0  0  0  0  0  0  0999 V2000     
   20.7588   18.6698   19.5612 C   0  0  0  0  0  0  0  0  0  0  0  0
   21.6963   18.5753   20.1231 H   0  0  0  0  0  0  0  0  0  0  0  0
   20.8141   17.9793   18.7097 H   0  0  0  0  0  0  0  0  0  0  0  0
   20.6975   19.6906   19.1622 H   0  0  0  0  0  0  0  0  0  0  0  0
   19.5326   18.3432   20.4435 C   0  0  0  0  0  0  0  0  0  0  0  0
   19.6333   17.3292   20.8551 H   0  0  0  0  0  0  0  0  0  0  0  0
   18.6345   18.3297   19.8101 H   0  0  0  0  0  0  0  0  0  0  0  0
   19.3134   19.3553   21.5938 C   0  0  0  0  0  0  0  0  0  0  0  0
   19.1868   20.3625   21.1736 H   0  0  0  0  0  0  0  0  0  0  0  0
   18.3658   19.1121   22.0887 H   0  0  0  0  0  0  0  0  0  0  0  0
   20.4662   19.3677   22.6306 C   0  0  0  0  0  0  0  0  0  0  0  0
   21.3759   19.7284   22.1329 H   0  0  0  0  0  0  0  0  0  0  0  0
   20.6882   18.3454   22.9624 H   0  0  0  0  0  0  0  0  0  0  0  0
   20.1895   20.2921   23.8493 C   0  0  0  0  0  0  0  0  0  0  0  0
   21.1341   20.7693   24.1417 H   0  0  0  0  0  0  0  0  0  0  0  0
   19.5301   21.1176   23.5501 H   0  0  0  0  0  0  0  0  0  0  0  0
   19.6100   19.6008   25.1086 C   0  0  1  0  0  0  0  0  0  0  0  0
   19.4647   20.3791   25.8642 H   0  0  0  0  0  0  0  0  0  0  0  0
   18.2438   18.9433   24.8549 C   0  0  0  0  0  0  0  0  0  0  0  0
   17.5427   19.6599   24.4096 H   0  0  0  0  0  0  0  0  0  0  0  0
   17.8062   18.5931   25.7978 H   0  0  0  0  0  0  0  0  0  0  0  0
   18.3316   18.0788   24.1861 H   0  0  0  0  0  0  0  0  0  0  0  0
   20.5738   18.6159   25.7122 N   0  3  0  0  0  0  0  0  0  0  0  0
   21.4703   19.0569   25.9366 H   0  0  0  0  0  0  0  0  0  0  0  0
   20.2051   18.2154   26.5794 H   0  0  0  0  0  0  0  0  0  0  0  0
   20.7638   17.8406   25.0727 H   0  0  0  0  0  0  0  0  0  0  0  0
  1  2  1  0  0  0  0
  1  3  1  0  0  0  0
  1  4  1  0  0  0  0
  1  5  1  0  0  0  0
  5  6  1  0  0  0  0
  5  7  1  0  0  0  0
  5  8  1  0  0  0  0
  8  9  1  0  0  0  0
  8 10  1  0  0  0  0
  8 11  1  0  0  0  0
 11 12  1  0  0  0  0
 11 13  1  0  0  0  0
 11 14  1  0  0  0  0
 14 15  1  0  0  0  0
 14 16  1  0  0  0  0
 14 17  1  0  0  0  0
 17 18  1  0  0  0  0
 17 19  1  0  0  0  0
 19 20  1  0  0  0  0
 19 21  1  0  0  0  0
 19 22  1  0  0  0  0
 17 23  1  0  0  0  0
 23 24  1  0  0  0  0
 23 25  1  0  0  0  0
 23 26  1  0  0  0  0
M  END
> <VM2 Rank>
64

> <Conf_Id>
429

> <Probability>
0.02

> <Sum Probability>
99.86

> <Delta G>
4.052

> <G>
27.762

> <E>
-5.292

> <-TS>
33.054

> <U+W>
-26.754

> <U>
27.509

> <W>
-54.263

> <W(PB)>
-56.495

> <W(SA)>
2.232

> <Valence>
6.375

> <Coulomb>
20.014

> <VdW>
1.120

> <VdW6>
-8.976

> <VdW12>
10.096

> <Bond>
0.304

> <Angle>
1.985

> <Pdih>
4.086

> <Idih>
0.000

> <Tether>
0.000

$$$$
VeraChem MOL file


 26 25  0  0  0  0  0  0  0  0999 V2000     
   20.6431   19.9243   19.9617 C   0  0  0  0  0  0  0  0  0  0  0  0
   19.8009   20.1829   19.3067 H   0  0  0  0  0  0  0  0  0  0  0  0
   20.6668   20.6500   20.7820 H   0  0  0  0  0  0  0  0  0  0  0  0
   21.5663   20.0485   19.3810 H   0  0  0  0  0  0  0  0  0  0  0  0
   20.5174   18.4701   20.4730 C   0  0  0  0  0  0  0  0  0  0  0  0
   21.4010   18.1955   21.0658 H   0  0  0  0  0  0  0  0  0  0  0  0
   20.5210   17.8031   19.5995 H   0  0  0  0  0  0  0  0  0  0  0  0
   19.2215   18.2135   21.2849 C   0  0  0  0  0  0  0  0  0  0  0  0
   18.4214   18.8865   20.9470 H   0  0  0  0  0  0  0  0  0  0  0  0
   18.8699   17.1983   21.0542 H   0  0  0  0  0  0  0  0  0  0  0  0
   19.3858   18.3110   22.8237 C   0  0  0  0  0  0  0  0  0  0  0  0
   20.1123   17.5568   23.1542 H   0  0  0  0  0  0  0  0  0  0  0  0
   18.4265   18.0345   23.2791 H   0  0  0  0  0  0  0  0  0  0  0  0
   19.8183   19.7135   23.3282 C   0  0  0  0  0  0  0  0  0  0  0  0
   20.8212   19.9398   22.9468 H   0  0  0  0  0  0  0  0  0  0  0  0
   19.1486   20.4758   22.9088 H   0  0  0  0  0  0  0  0  0  0  0  0
   19.8532   19.8709   24.8670 C   0  0  1  0  0  0  0  0  0  0  0  0
   20.2454   20.8699   25.0813 H   0  0  0  0  0  0  0  0  0  0  0  0
   18.4499   19.7824   25.4927 C   0  0  0  0  0  0  0  0  0  0  0  0
   18.0292   18.7735   25.4094 H   0  0  0  0  0  0  0  0  0  0  0  0
   17.7609   20.4840   25.0064 H   0  0  0  0  0  0  0  0  0  0  0  0
   18.4891   20.0405   26.5580 H   0  0  0  0  0  0  0  0  0  0  0  0
   20.7987   18.9024   25.5228 N   0  3  0  0  0  0  0  0  0  0  0  0
   21.7465   18.9888   25.1452 H   0  0  0  0  0  0  0  0  0  0  0  0
   20.8561   19.0610   26.5327 H   0  0  0  0  0  0  0  0  0  0  0  0
   20.4970   17.9354   25.3806 H   0  0  0  0  0  0  0  0  0  0  0  0
  1  2  1  0  0  0  0
  1  3  1  0  0  0  0
  1  4  1  0  0  0  0
  1  5  1  0  0  0  0
  5  6  1  0  0  0  0
  5  7  1  0  0  0  0
  5  8  1  0  0  0  0
  8  9  1  0  0  0  0
  8 10  1  0  0  0  0
  8 11  1  0  0  0  0
 11 12  1  0  0  0  0
 11 13  1  0  0  0  0
 11 14  1  0  0  0  0
 14 15  1  0  0  0  0
 14 16  1  0  0  0  0
 14 17  1  0  0  0  0
 17 18  1  0  0  0  0
 17 19  1  0  0  0  0
 19 20  1  0  0  0  0
 19 21  1  0  0  0  0
 19 22  1  0  0  0  0
 17 23  1  0  0  0  0
 23 24  1  0  0  0  0
 23 25  1  0  0  0  0
 23 26  1  0  0  0  0
M  END
> <VM2 Rank>
65

> <Conf_Id>
567

> <Probability>
0.02

> <Sum Probability>
99.88

> <Delta G>
4.063

> <G>
27.773

> <E>
-5.249

> <-TS>
33.022

> <U+W>
-26.711

> <U>
27.573

> <W>
-54.284

> <W(PB)>
-56.537

> <W(SA)>
2.253

> <Valence>
6.363

> <Coulomb>
20.026

> <VdW>
1.184

> <VdW6>
-8.939

> <VdW12>
10.123

> <Bond>
0.298

> <Angle>
2.017

> <Pdih>
4.047

> <Idih>
0.000

> <Tether>
0.000

$$$$
VeraChem MOL file


 26 25  0  0  0  0  0  0  0  0999 V2000     
   19.5508   18.2246   19.4067 C   0  0  0  0  0  0  0  0  0  0  0  0
   18.5808   17.8139   19.7158 H   0  0  0  0  0  0  0  0  0  0  0  0
   19.3647   19.0806   18.7449 H   0  0  0  0  0  0  0  0  0  0  0  0
   20.0720   17.4548   18.8229 H   0  0  0  0  0  0  0  0  0  0  0  0
   20.3919   18.6422   20.6316 C   0  0  0  0  0  0  0  0  0  0  0  0
   21.3669   19.0178   20.2911 H   0  0  0  0  0  0  0  0  0  0  0  0
   20.5927   17.7548   21.2457 H   0  0  0  0  0  0  0  0  0  0  0  0
   19.6775   19.7297   21.4692 C   0  0  0  0  0  0  0  0  0  0  0  0
   19.4612   20.5877   20.8177 H   0  0  0  0  0  0  0  0  0  0  0  0
   18.7055   19.3524   21.8092 H   0  0  0  0  0  0  0  0  0  0  0  0
   20.5198   20.2298   22.6720 C   0  0  0  0  0  0  0  0  0  0  0  0
   20.0910   21.1651   23.0576 H   0  0  0  0  0  0  0  0  0  0  0  0
   21.5201   20.4976   22.3046 H   0  0  0  0  0  0  0  0  0  0  0  0
   20.6675   19.2108   23.8360 C   0  0  0  0  0  0  0  0  0  0  0  0
   20.6005   18.1805   23.4671 H   0  0  0  0  0  0  0  0  0  0  0  0
   21.6819   19.3154   24.2432 H   0  0  0  0  0  0  0  0  0  0  0  0
   19.6742   19.4157   25.0050 C   0  0  1  0  0  0  0  0  0  0  0  0
   19.7961   20.4363   25.3806 H   0  0  0  0  0  0  0  0  0  0  0  0
   18.2078   19.2330   24.5788 C   0  0  0  0  0  0  0  0  0  0  0  0
   18.0497   18.2557   24.1061 H   0  0  0  0  0  0  0  0  0  0  0  0
   17.9029   20.0150   23.8739 H   0  0  0  0  0  0  0  0  0  0  0  0
   17.5406   19.3039   25.4466 H   0  0  0  0  0  0  0  0  0  0  0  0
   19.9985   18.5022   26.1546 N   0  3  0  0  0  0  0  0  0  0  0  0
   19.9033   17.5183   25.8893 H   0  0  0  0  0  0  0  0  0  0  0  0
   20.9570   18.6399   26.4875 H   0  0  0  0  0  0  0  0  0  0  0  0
   19.3743   18.6657   26.9497 H   0  0  0  0  0  0  0  0  0  0  0  0
  1  2  1  0  0  0  0
  1  3  1  0  0  0  0
  1  4  1  0  0  0  0
  1  5  1  0  0  0  0
  5  6  1  0  0  0  0
  5  7  1  0  0  0  0
  5  8  1  0  0  0  0
  8  9  1  0  0  0  0
  8 10  1  0  0  0  0
  8 11  1  0  0  0  0
 11 12  1  0  0  0  0
 11 13  1  0  0  0  0
 11 14  1  0  0  0  0
 14 15  1  0  0  0  0
 14 16  1  0  0  0  0
 14 17  1  0  0  0  0
 17 18  1  0  0  0  0
 17 19  1  0  0  0  0
 19 20  1  0  0  0  0
 19 21  1  0  0  0  0
 19 22  1  0  0  0  0
 17 23  1  0  0  0  0
 23 24  1  0  0  0  0
 23 25  1  0  0  0  0
 23 26  1  0  0  0  0
M  END
> <VM2 Rank>
66

> <Conf_Id>
532

> <Probability>
0.02

> <Sum Probability>
99.90

> <Delta G>
4.152

> <G>
27.862

> <E>
-5.039

> <-TS>
32.902

> <U+W>
-26.501

> <U>
27.603

> <W>
-54.104

> <W(PB)>
-56.397

> <W(SA)>
2.293

> <Valence>
6.568

> <Coulomb>
19.917

> <VdW>
1.118

> <VdW6>
-8.472

> <VdW12>
9.590

> <Bond>
0.286

> <Angle>
1.908

> <Pdih>
4.373

> <Idih>
0.000

> <Tether>
0.000

$$$$
VeraChem MOL file


 26 25  0  0  0  0  0  0  0  0999 V2000     
   20.4401   19.0356   19.4807 C   0  0  0  0  0  0  0  0  0  0  0  0
   21.5266   19.1529   19.5843 H   0  0  0  0  0  0  0  0  0  0  0  0
   20.2422   18.6106   18.4881 H   0  0  0  0  0  0  0  0  0  0  0  0
   19.9821   20.0318   19.5082 H   0  0  0  0  0  0  0  0  0  0  0  0
   19.8724   18.1147   20.5849 C   0  0  0  0  0  0  0  0  0  0  0  0
   20.2638   17.0995   20.4299 H   0  0  0  0  0  0  0  0  0  0  0  0
   18.7807   18.0415   20.4822 H   0  0  0  0  0  0  0  0  0  0  0  0
   20.2356   18.5704   22.0192 C   0  0  0  0  0  0  0  0  0  0  0  0
   19.9247   17.7749   22.7063 H   0  0  0  0  0  0  0  0  0  0  0  0
   21.3267   18.6625   22.1087 H   0  0  0  0  0  0  0  0  0  0  0  0
   19.5572   19.9005   22.4336 C   0  0  0  0  0  0  0  0  0  0  0  0
   18.4658   19.7830   22.4042 H   0  0  0  0  0  0  0  0  0  0  0  0
   19.7922   20.6714   21.6891 H   0  0  0  0  0  0  0  0  0  0  0  0
   19.9977   20.4505   23.8199 C   0  0  0  0  0  0  0  0  0  0  0  0
   21.0716   20.6770   23.7952 H   0  0  0  0  0  0  0  0  0  0  0  0
   19.5006   21.4185   23.9661 H   0  0  0  0  0  0  0  0  0  0  0  0
   19.6955   19.5806   25.0671 C   0  0  1  0  0  0  0  0  0  0  0  0
   19.8545   20.2194   25.9414 H   0  0  0  0  0  0  0  0  0  0  0  0
   18.2343   19.1008   25.1112 C   0  0  0  0  0  0  0  0  0  0  0  0
   18.0182   18.6152   26.0706 H   0  0  0  0  0  0  0  0  0  0  0  0
   18.0206   18.3786   24.3142 H   0  0  0  0  0  0  0  0  0  0  0  0
   17.5443   19.9468   25.0034 H   0  0  0  0  0  0  0  0  0  0  0  0
   20.6553   18.4349   25.2374 N   0  3  0  0  0  0  0  0  0  0  0  0
   20.4694   17.9177   26.1013 H   0  0  0  0  0  0  0  0  0  0  0  0
   20.5878   17.7733   24.4617 H   0  0  0  0  0  0  0  0  0  0  0  0
   21.6246   18.7619   25.2807 H   0  0  0  0  0  0  0  0  0  0  0  0
  1  2  1  0  0  0  0
  1  3  1  0  0  0  0
  1  4  1  0  0  0  0
  1  5  1  0  0  0  0
  5  6  1  0  0  0  0
  5  7  1  0  0  0  0
  5  8  1  0  0  0  0
  8  9  1  0  0  0  0
  8 10  1  0  0  0  0
  8 11  1  0  0  0  0
 11 12  1  0  0  0  0
 11 13  1  0  0  0  0
 11 14  1  0  0  0  0
 14 15  1  0  0  0  0
 14 16  1  0  0  0  0
 14 17  1  0  0  0  0
 17 18  1  0  0  0  0
 17 19  1  0  0  0  0
 19 20  1  0  0  0  0
 19 21  1  0  0  0  0
 19 22  1  0  0  0  0
 17 23  1  0  0  0  0
 23 24  1  0  0  0  0
 23 25  1  0  0  0  0
 23 26  1  0  0  0  0
M  END
> <VM2 Rank>
67

> <Conf_Id>
175

> <Probability>
0.02

> <Sum Probability>
99.92

> <Delta G>
4.160

> <G>
27.870

> <E>
-5.300

> <-TS>
33.170

> <U+W>
-26.761

> <U>
27.482

> <W>
-54.244

> <W(PB)>
-56.495

> <W(SA)>
2.251

> <Valence>
5.285

> <Coulomb>
21.247

> <VdW>
0.951

> <VdW6>
-9.416

> <VdW12>
10.366

> <Bond>
0.323

> <Angle>
2.522

> <Pdih>
2.439

> <Idih>
0.000

> <Tether>
0.000

$$$$
VeraChem MOL file


 26 25  0  0  0  0  0  0  0  0999 V2000     
   21.4565   19.0943   20.5664 C   0  0  0  0  0  0  0  0  0  0  0  0
   21.8083   18.8170   21.5676 H   0  0  0  0  0  0  0  0  0  0  0  0
   22.2063   18.7419   19.8464 H   0  0  0  0  0  0  0  0  0  0  0  0
   21.4159   20.1891   20.4998 H   0  0  0  0  0  0  0  0  0  0  0  0
   20.0792   18.4661   20.2616 C   0  0  0  0  0  0  0  0  0  0  0  0
   20.1396   17.3763   20.3896 H   0  0  0  0  0  0  0  0  0  0  0  0
   19.8418   18.6348   19.2018 H   0  0  0  0  0  0  0  0  0  0  0  0
   18.9170   19.0262   21.1210 C   0  0  0  0  0  0  0  0  0  0  0  0
   18.7814   20.0979   20.9208 H   0  0  0  0  0  0  0  0  0  0  0  0
   17.9913   18.5423   20.7800 H   0  0  0  0  0  0  0  0  0  0  0  0
   19.0606   18.7759   22.6449 C   0  0  0  0  0  0  0  0  0  0  0  0
   19.6421   17.8607   22.8160 H   0  0  0  0  0  0  0  0  0  0  0  0
   18.0595   18.5824   23.0524 H   0  0  0  0  0  0  0  0  0  0  0  0
   19.6812   19.9798   23.4065 C   0  0  0  0  0  0  0  0  0  0  0  0
   20.6313   20.2690   22.9441 H   0  0  0  0  0  0  0  0  0  0  0  0
   19.0220   20.8510   23.2973 H   0  0  0  0  0  0  0  0  0  0  0  0
   19.9316   19.7357   24.9134 C   0  0  1  0  0  0  0  0  0  0  0  0
   20.3740   20.6498   25.3215 H   0  0  0  0  0  0  0  0  0  0  0  0
   18.6263   19.4674   25.6826 C   0  0  0  0  0  0  0  0  0  0  0  0
   17.8946   20.2639   25.4986 H   0  0  0  0  0  0  0  0  0  0  0  0
   18.8173   19.4344   26.7622 H   0  0  0  0  0  0  0  0  0  0  0  0
   18.1743   18.5112   25.3934 H   0  0  0  0  0  0  0  0  0  0  0  0
   20.9356   18.6427   25.1576 N   0  3  0  0  0  0  0  0  0  0  0  0
   21.8246   18.8376   24.6886 H   0  0  0  0  0  0  0  0  0  0  0  0
   21.1341   18.5338   26.1562 H   0  0  0  0  0  0  0  0  0  0  0  0
   20.5953   17.7419   24.8125 H   0  0  0  0  0  0  0  0  0  0  0  0
  1  2  1  0  0  0  0
  1  3  1  0  0  0  0
  1  4  1  0  0  0  0
  1  5  1  0  0  0  0
  5  6  1  0  0  0  0
  5  7  1  0  0  0  0
  5  8  1  0  0  0  0
  8  9  1  0  0  0  0
  8 10  1  0  0  0  0
  8 11  1  0  0  0  0
 11 12  1  0  0  0  0
 11 13  1  0  0  0  0
 11 14  1  0  0  0  0
 14 15  1  0  0  0  0
 14 16  1  0  0  0  0
 14 17  1  0  0  0  0
 17 18  1  0  0  0  0
 17 19  1  0  0  0  0
 19 20  1  0  0  0  0
 19 21  1  0  0  0  0
 19 22  1  0  0  0  0
 17 23  1  0  0  0  0
 23 24  1  0  0  0  0
 23 25  1  0  0  0  0
 23 26  1  0  0  0  0
M  END
> <VM2 Rank>
68

> <Conf_Id>
460

> <Probability>
0.01

> <Sum Probability>
99.93

> <Delta G>
4.261

> <G>
27.971

> <E>
-5.116

> <-TS>
33.087

> <U+W>
-26.577

> <U>
27.752

> <W>
-54.329

> <W(PB)>
-56.573

> <W(SA)>
2.244

> <Valence>
6.249

> <Coulomb>
20.445

> <VdW>
1.057

> <VdW6>
-9.101

> <VdW12>
10.158

> <Bond>
0.302

> <Angle>
1.929

> <Pdih>
4.018

> <Idih>
0.000

> <Tether>
0.000

$$$$
VeraChem MOL file


 26 25  0  0  0  0  0  0  0  0999 V2000     
   21.5625   18.8570   21.1161 C   0  0  0  0  0  0  0  0  0  0  0  0
   21.5830   18.2930   22.0537 H   0  0  0  0  0  0  0  0  0  0  0  0
   22.2321   18.3446   20.4132 H   0  0  0  0  0  0  0  0  0  0  0  0
   21.9805   19.8541   21.3056 H   0  0  0  0  0  0  0  0  0  0  0  0
   20.1373   18.9549   20.5242 C   0  0  0  0  0  0  0  0  0  0  0  0
   19.7295   17.9505   20.3444 H   0  0  0  0  0  0  0  0  0  0  0  0
   20.2180   19.4284   19.5357 H   0  0  0  0  0  0  0  0  0  0  0  0
   19.1524   19.7907   21.3825 C   0  0  0  0  0  0  0  0  0  0  0  0
   19.6767   20.6296   21.8590 H   0  0  0  0  0  0  0  0  0  0  0  0
   18.4271   20.2542   20.6995 H   0  0  0  0  0  0  0  0  0  0  0  0
   18.3394   18.9810   22.4287 C   0  0  0  0  0  0  0  0  0  0  0  0
   17.7755   18.1934   21.9103 H   0  0  0  0  0  0  0  0  0  0  0  0
   17.5787   19.6406   22.8670 H   0  0  0  0  0  0  0  0  0  0  0  0
   19.1637   18.3323   23.5708 C   0  0  0  0  0  0  0  0  0  0  0  0
   18.4729   17.8532   24.2772 H   0  0  0  0  0  0  0  0  0  0  0  0
   19.7664   17.5178   23.1514 H   0  0  0  0  0  0  0  0  0  0  0  0
   20.0836   19.3064   24.3438 C   0  0  1  0  0  0  0  0  0  0  0  0
   20.7514   19.7919   23.6261 H   0  0  0  0  0  0  0  0  0  0  0  0
   19.2824   20.3973   25.0764 C   0  0  0  0  0  0  0  0  0  0  0  0
   18.5614   19.9573   25.7765 H   0  0  0  0  0  0  0  0  0  0  0  0
   18.7325   21.0292   24.3693 H   0  0  0  0  0  0  0  0  0  0  0  0
   19.9529   21.0530   25.6454 H   0  0  0  0  0  0  0  0  0  0  0  0
   20.9667   18.5685   25.3116 N   0  3  0  0  0  0  0  0  0  0  0  0
   20.4157   18.0873   26.0274 H   0  0  0  0  0  0  0  0  0  0  0  0
   21.5398   17.8637   24.8394 H   0  0  0  0  0  0  0  0  0  0  0  0
   21.6050   19.2059   25.7961 H   0  0  0  0  0  0  0  0  0  0  0  0
  1  2  1  0  0  0  0
  1  3  1  0  0  0  0
  1  4  1  0  0  0  0
  1  5  1  0  0  0  0
  5  6  1  0  0  0  0
  5  7  1  0  0  0  0
  5  8  1  0  0  0  0
  8  9  1  0  0  0  0
  8 10  1  0  0  0  0
  8 11  1  0  0  0  0
 11 12  1  0  0  0  0
 11 13  1  0  0  0  0
 11 14  1  0  0  0  0
 14 15  1  0  0  0  0
 14 16  1  0  0  0  0
 14 17  1  0  0  0  0
 17 18  1  0  0  0  0
 17 19  1  0  0  0  0
 19 20  1  0  0  0  0
 19 21  1  0  0  0  0
 19 22  1  0  0  0  0
 17 23  1  0  0  0  0
 23 24  1  0  0  0  0
 23 25  1  0  0  0  0
 23 26  1  0  0  0  0
M  END
> <VM2 Rank>
69

> <Conf_Id>
535

> <Probability>
0.01

> <Sum Probability>
99.94

> <Delta G>
4.473

> <G>
28.183

> <E>
-5.280

> <-TS>
33.463

> <U+W>
-26.742

> <U>
27.819

> <W>
-54.561

> <W(PB)>
-56.769

> <W(SA)>
2.208

> <Valence>
6.496

> <Coulomb>
20.856

> <VdW>
0.467

> <VdW6>
-10.243

> <VdW12>
10.710

> <Bond>
0.303

> <Angle>
2.526

> <Pdih>
3.667

> <Idih>
0.000

> <Tether>
0.000

$$$$
VeraChem MOL file


 26 25  0  0  0  0  0  0  0  0999 V2000     
   20.0171   20.2052   20.1607 C   0  0  0  0  0  0  0  0  0  0  0  0
   20.6286   21.0510   19.8210 H   0  0  0  0  0  0  0  0  0  0  0  0
   19.6793   19.6585   19.2707 H   0  0  0  0  0  0  0  0  0  0  0  0
   19.1347   20.6185   20.6633 H   0  0  0  0  0  0  0  0  0  0  0  0
   20.8369   19.2882   21.0973 C   0  0  0  0  0  0  0  0  0  0  0  0
   21.1654   19.8562   21.9747 H   0  0  0  0  0  0  0  0  0  0  0  0
   21.7561   18.9923   20.5726 H   0  0  0  0  0  0  0  0  0  0  0  0
   20.0800   18.0010   21.5159 C   0  0  0  0  0  0  0  0  0  0  0  0
   19.7625   17.4838   20.5999 H   0  0  0  0  0  0  0  0  0  0  0  0
   20.7773   17.3128   22.0129 H   0  0  0  0  0  0  0  0  0  0  0  0
   18.8327   18.2111   22.4184 C   0  0  0  0  0  0  0  0  0  0  0  0
   18.1436   17.3768   22.2284 H   0  0  0  0  0  0  0  0  0  0  0  0
   18.2764   19.1091   22.1255 H   0  0  0  0  0  0  0  0  0  0  0  0
   19.1271   18.2168   23.9435 C   0  0  0  0  0  0  0  0  0  0  0  0
   18.1727   18.2478   24.4857 H   0  0  0  0  0  0  0  0  0  0  0  0
   19.5911   17.2577   24.2084 H   0  0  0  0  0  0  0  0  0  0  0  0
   20.0295   19.3613   24.4571 C   0  0  1  0  0  0  0  0  0  0  0  0
   20.9734   19.3307   23.9072 H   0  0  0  0  0  0  0  0  0  0  0  0
   19.3796   20.7422   24.2567 C   0  0  0  0  0  0  0  0  0  0  0  0
   19.2132   20.9558   23.1951 H   0  0  0  0  0  0  0  0  0  0  0  0
   20.0272   21.5350   24.6508 H   0  0  0  0  0  0  0  0  0  0  0  0
   18.4136   20.8039   24.7729 H   0  0  0  0  0  0  0  0  0  0  0  0
   20.3851   19.1621   25.9044 N   0  3  0  0  0  0  0  0  0  0  0  0
   20.8562   18.2659   26.0575 H   0  0  0  0  0  0  0  0  0  0  0  0
   21.0135   19.8974   26.2402 H   0  0  0  0  0  0  0  0  0  0  0  0
   19.5527   19.1773   26.4998 H   0  0  0  0  0  0  0  0  0  0  0  0
  1  2  1  0  0  0  0
  1  3  1  0  0  0  0
  1  4  1  0  0  0  0
  1  5  1  0  0  0  0
  5  6  1  0  0  0  0
  5  7  1  0  0  0  0
  5  8  1  0  0  0  0
  8  9  1  0  0  0  0
  8 10  1  0  0  0  0
  8 11  1  0  0  0  0
 11 12  1  0  0  0  0
 11 13  1  0  0  0  0
 11 14  1  0  0  0  0
 14 15  1  0  0  0  0
 14 16  1  0  0  0  0
 14 17  1  0  0  0  0
 17 18  1  0  0  0  0
 17 19  1  0  0  0  0
 19 20  1  0  0  0  0
 19 21  1  0  0  0  0
 19 22  1  0  0  0  0
 17 23  1  0  0  0  0
 23 24  1  0  0  0  0
 23 25  1  0  0  0  0
 23 26  1  0  0  0  0
M  END
> <VM2 Rank>
70

> <Conf_Id>
284

> <Probability>
0.01

> <Sum Probability>
99.95

> <Delta G>
4.508

> <G>
28.218

> <E>
-5.378

> <-TS>
33.596

> <U+W>
-26.840

> <U>
27.574

> <W>
-54.414

> <W(PB)>
-56.626

> <W(SA)>
2.212

> <Valence>
6.650

> <Coulomb>
20.286

> <VdW>
0.638

> <VdW6>
-9.864

> <VdW12>
10.501

> <Bond>
0.322

> <Angle>
2.715

> <Pdih>
3.614

> <Idih>
0.000

> <Tether>
0.000

$$$$
VeraChem MOL file


 26 25  0  0  0  0  0  0  0  0999 V2000     
   20.7326   18.4120   19.8755 C   0  0  0  0  0  0  0  0  0  0  0  0
   20.7748   17.5060   19.2573 H   0  0  0  0  0  0  0  0  0  0  0  0
   20.8251   19.2789   19.2085 H   0  0  0  0  0  0  0  0  0  0  0  0
   21.6029   18.3959   20.5435 H   0  0  0  0  0  0  0  0  0  0  0  0
   19.4095   18.4623   20.6723 C   0  0  0  0  0  0  0  0  0  0  0  0
   19.3532   17.6008   21.3501 H   0  0  0  0  0  0  0  0  0  0  0  0
   18.5718   18.3426   19.9711 H   0  0  0  0  0  0  0  0  0  0  0  0
   19.2054   19.7843   21.4572 C   0  0  0  0  0  0  0  0  0  0  0  0
   19.1084   20.6045   20.7327 H   0  0  0  0  0  0  0  0  0  0  0  0
   18.2404   19.7371   21.9745 H   0  0  0  0  0  0  0  0  0  0  0  0
   20.3350   20.1552   22.4596 C   0  0  0  0  0  0  0  0  0  0  0  0
   20.1236   21.1410   22.8962 H   0  0  0  0  0  0  0  0  0  0  0  0
   21.2673   20.2898   21.8955 H   0  0  0  0  0  0  0  0  0  0  0  0
   20.5911   19.1318   23.6015 C   0  0  0  0  0  0  0  0  0  0  0  0
   20.3924   18.1079   23.2659 H   0  0  0  0  0  0  0  0  0  0  0  0
   21.6644   19.1599   23.8312 H   0  0  0  0  0  0  0  0  0  0  0  0
   19.8341   19.4138   24.9218 C   0  0  1  0  0  0  0  0  0  0  0  0
   20.1063   20.4173   25.2633 H   0  0  0  0  0  0  0  0  0  0  0  0
   18.3059   19.3609   24.7615 C   0  0  0  0  0  0  0  0  0  0  0  0
   17.9474   20.1992   24.1540 H   0  0  0  0  0  0  0  0  0  0  0  0
   17.8107   19.4390   25.7372 H   0  0  0  0  0  0  0  0  0  0  0  0
   17.9865   18.4229   24.2906 H   0  0  0  0  0  0  0  0  0  0  0  0
   20.2744   18.4676   26.0046 N   0  3  0  0  0  0  0  0  0  0  0  0
   20.0495   17.4977   25.7678 H   0  0  0  0  0  0  0  0  0  0  0  0
   21.2846   18.5195   26.1635 H   0  0  0  0  0  0  0  0  0  0  0  0
   19.8154   18.6788   26.8951 H   0  0  0  0  0  0  0  0  0  0  0  0
  1  2  1  0  0  0  0
  1  3  1  0  0  0  0
  1  4  1  0  0  0  0
  1  5  1  0  0  0  0
  5  6  1  0  0  0  0
  5  7  1  0  0  0  0
  5  8  1  0  0  0  0
  8  9  1  0  0  0  0
  8 10  1  0  0  0  0
  8 11  1  0  0  0  0
 11 12  1  0  0  0  0
 11 13  1  0  0  0  0
 11 14  1  0  0  0  0
 14 15  1  0  0  0  0
 14 16  1  0  0  0  0
 14 17  1  0  0  0  0
 17 18  1  0  0  0  0
 17 19  1  0  0  0  0
 19 20  1  0  0  0  0
 19 21  1  0  0  0  0
 19 22  1  0  0  0  0
 17 23  1  0  0  0  0
 23 24  1  0  0  0  0
 23 25  1  0  0  0  0
 23 26  1  0  0  0  0
M  END
> <VM2 Rank>
71

> <Conf_Id>
90

> <Probability>
0.01

> <Sum Probability>
99.95

> <Delta G>
4.616

> <G>
28.326

> <E>
-4.565

> <-TS>
32.890

> <U+W>
-26.026

> <U>
28.262

> <W>
-54.288

> <W(PB)>
-56.488

> <W(SA)>
2.200

> <Valence>
7.096

> <Coulomb>
19.990

> <VdW>
1.176

> <VdW6>
-9.405

> <VdW12>
10.580

> <Bond>
0.360

> <Angle>
2.785

> <Pdih>
3.951

> <Idih>
0.000

> <Tether>
0.000

$$$$
VeraChem MOL file


 26 25  0  0  0  0  0  0  0  0999 V2000     
   19.7576   18.2352   19.8787 C   0  0  0  0  0  0  0  0  0  0  0  0
   20.5367   18.6072   19.2008 H   0  0  0  0  0  0  0  0  0  0  0  0
   20.1758   17.4054   20.4618 H   0  0  0  0  0  0  0  0  0  0  0  0
   18.9432   17.8298   19.2644 H   0  0  0  0  0  0  0  0  0  0  0  0
   19.2337   19.3633   20.7957 C   0  0  0  0  0  0  0  0  0  0  0  0
   18.4716   18.9589   21.4739 H   0  0  0  0  0  0  0  0  0  0  0  0
   18.7200   20.1118   20.1764 H   0  0  0  0  0  0  0  0  0  0  0  0
   20.3544   20.0727   21.5988 C   0  0  0  0  0  0  0  0  0  0  0  0
   21.0560   20.5310   20.8882 H   0  0  0  0  0  0  0  0  0  0  0  0
   19.9267   20.9106   22.1637 H   0  0  0  0  0  0  0  0  0  0  0  0
   21.1582   19.1566   22.5582 C   0  0  0  0  0  0  0  0  0  0  0  0
   21.9422   19.7563   23.0408 H   0  0  0  0  0  0  0  0  0  0  0  0
   21.6938   18.4025   21.9666 H   0  0  0  0  0  0  0  0  0  0  0  0
   20.3358   18.4345   23.6590 C   0  0  0  0  0  0  0  0  0  0  0  0
   19.5542   17.8047   23.2156 H   0  0  0  0  0  0  0  0  0  0  0  0
   21.0210   17.7359   24.1570 H   0  0  0  0  0  0  0  0  0  0  0  0
   19.7378   19.3824   24.7282 C   0  0  1  0  0  0  0  0  0  0  0  0
   20.3357   20.2987   24.7470 H   0  0  0  0  0  0  0  0  0  0  0  0
   18.2739   19.7521   24.4273 C   0  0  0  0  0  0  0  0  0  0  0  0
   17.8781   20.4194   25.2028 H   0  0  0  0  0  0  0  0  0  0  0  0
   17.6384   18.8584   24.3940 H   0  0  0  0  0  0  0  0  0  0  0  0
   18.1762   20.2739   23.4705 H   0  0  0  0  0  0  0  0  0  0  0  0
   19.8366   18.7911   26.1081 N   0  3  0  0  0  0  0  0  0  0  0  0
   20.8068   18.5805   26.3593 H   0  0  0  0  0  0  0  0  0  0  0  0
   19.4718   19.4335   26.8171 H   0  0  0  0  0  0  0  0  0  0  0  0
   19.3032   17.9207   26.1814 H   0  0  0  0  0  0  0  0  0  0  0  0
  1  2  1  0  0  0  0
  1  3  1  0  0  0  0
  1  4  1  0  0  0  0
  1  5  1  0  0  0  0
  5  6  1  0  0  0  0
  5  7  1  0  0  0  0
  5  8  1  0  0  0  0
  8  9  1  0  0  0  0
  8 10  1  0  0  0  0
  8 11  1  0  0  0  0
 11 12  1  0  0  0  0
 11 13  1  0  0  0  0
 11 14  1  0  0  0  0
 14 15  1  0  0  0  0
 14 16  1  0  0  0  0
 14 17  1  0  0  0  0
 17 18  1  0  0  0  0
 17 19  1  0  0  0  0
 19 20  1  0  0  0  0
 19 21  1  0  0  0  0
 19 22  1  0  0  0  0
 17 23  1  0  0  0  0
 23 24  1  0  0  0  0
 23 25  1  0  0  0  0
 23 26  1  0  0  0  0
M  END
> <VM2 Rank>
72

> <Conf_Id>
234

> <Probability>
0.01

> <Sum Probability>
99.96

> <Delta G>
4.620

> <G>
28.330

> <E>
-5.037

> <-TS>
33.367

> <U+W>
-26.499

> <U>
27.871

> <W>
-54.370

> <W(PB)>
-56.583

> <W(SA)>
2.213

> <Valence>
6.984

> <Coulomb>
20.043

> <VdW>
0.844

> <VdW6>
-9.755

> <VdW12>
10.599

> <Bond>
0.302

> <Angle>
2.441

> <Pdih>
4.240

> <Idih>
0.000

> <Tether>
0.000

$$$$
VeraChem MOL file


 26 25  0  0  0  0  0  0  0  0999 V2000     
   20.8187   17.9928   20.0805 C   0  0  0  0  0  0  0  0  0  0  0  0
   20.9440   17.7823   19.0104 H   0  0  0  0  0  0  0  0  0  0  0  0
   21.7566   18.4324   20.4421 H   0  0  0  0  0  0  0  0  0  0  0  0
   20.6659   17.0353   20.5949 H   0  0  0  0  0  0  0  0  0  0  0  0
   19.6217   18.9438   20.3077 C   0  0  0  0  0  0  0  0  0  0  0  0
   18.7301   18.5124   19.8315 H   0  0  0  0  0  0  0  0  0  0  0  0
   19.8083   19.9005   19.8002 H   0  0  0  0  0  0  0  0  0  0  0  0
   19.3147   19.1951   21.8036 C   0  0  0  0  0  0  0  0  0  0  0  0
   18.3997   19.7988   21.8763 H   0  0  0  0  0  0  0  0  0  0  0  0
   19.1004   18.2326   22.2836 H   0  0  0  0  0  0  0  0  0  0  0  0
   20.4631   19.9178   22.5496 C   0  0  0  0  0  0  0  0  0  0  0  0
   20.7900   20.7724   21.9413 H   0  0  0  0  0  0  0  0  0  0  0  0
   21.3359   19.2567   22.6249 H   0  0  0  0  0  0  0  0  0  0  0  0
   20.0900   20.4573   23.9598 C   0  0  0  0  0  0  0  0  0  0  0  0
   20.9656   20.9968   24.3440 H   0  0  0  0  0  0  0  0  0  0  0  0
   19.3025   21.2168   23.8675 H   0  0  0  0  0  0  0  0  0  0  0  0
   19.6847   19.4176   25.0369 C   0  0  1  0  0  0  0  0  0  0  0  0
   19.8901   19.8782   26.0082 H   0  0  0  0  0  0  0  0  0  0  0  0
   18.1782   19.0986   25.0197 C   0  0  0  0  0  0  0  0  0  0  0  0
   17.5851   20.0185   25.0928 H   0  0  0  0  0  0  0  0  0  0  0  0
   17.9129   18.4687   25.8776 H   0  0  0  0  0  0  0  0  0  0  0  0
   17.8723   18.5683   24.1132 H   0  0  0  0  0  0  0  0  0  0  0  0
   20.5168   18.1651   24.9962 N   0  3  0  0  0  0  0  0  0  0  0  0
   21.5136   18.3760   25.0978 H   0  0  0  0  0  0  0  0  0  0  0  0
   20.2614   17.5202   25.7494 H   0  0  0  0  0  0  0  0  0  0  0  0
   20.3949   17.6711   24.1088 H   0  0  0  0  0  0  0  0  0  0  0  0
  1  2  1  0  0  0  0
  1  3  1  0  0  0  0
  1  4  1  0  0  0  0
  1  5  1  0  0  0  0
  5  6  1  0  0  0  0
  5  7  1  0  0  0  0
  5  8  1  0  0  0  0
  8  9  1  0  0  0  0
  8 10  1  0  0  0  0
  8 11  1  0  0  0  0
 11 12  1  0  0  0  0
 11 13  1  0  0  0  0
 11 14  1  0  0  0  0
 14 15  1  0  0  0  0
 14 16  1  0  0  0  0
 14 17  1  0  0  0  0
 17 18  1  0  0  0  0
 17 19  1  0  0  0  0
 19 20  1  0  0  0  0
 19 21  1  0  0  0  0
 19 22  1  0  0  0  0
 17 23  1  0  0  0  0
 23 24  1  0  0  0  0
 23 25  1  0  0  0  0
 23 26  1  0  0  0  0
M  END
> <VM2 Rank>
73

> <Conf_Id>
835

> <Probability>
0.01

> <Sum Probability>
99.97

> <Delta G>
4.722

> <G>
28.432

> <E>
-4.752

> <-TS>
33.184

> <U+W>
-26.214

> <U>
27.935

> <W>
-54.148

> <W(PB)>
-56.370

> <W(SA)>
2.221

> <Valence>
6.278

> <Coulomb>
20.605

> <VdW>
1.052

> <VdW6>
-9.401

> <VdW12>
10.453

> <Bond>
0.315

> <Angle>
2.522

> <Pdih>
3.440

> <Idih>
0.000

> <Tether>
0.000

$$$$
VeraChem MOL file


 26 25  0  0  0  0  0  0  0  0999 V2000     
   19.6516   18.2680   19.9644 C   0  0  0  0  0  0  0  0  0  0  0  0
   20.0226   18.9306   19.1717 H   0  0  0  0  0  0  0  0  0  0  0  0
   19.5151   17.2690   19.5307 H   0  0  0  0  0  0  0  0  0  0  0  0
   18.6649   18.6291   20.2802 H   0  0  0  0  0  0  0  0  0  0  0  0
   20.6404   18.2133   21.1505 C   0  0  0  0  0  0  0  0  0  0  0  0
   21.5750   17.7466   20.8092 H   0  0  0  0  0  0  0  0  0  0  0  0
   20.2400   17.5523   21.9296 H   0  0  0  0  0  0  0  0  0  0  0  0
   20.9700   19.6103   21.7362 C   0  0  0  0  0  0  0  0  0  0  0  0
   21.7355   19.5128   22.5153 H   0  0  0  0  0  0  0  0  0  0  0  0
   21.4424   20.2140   20.9489 H   0  0  0  0  0  0  0  0  0  0  0  0
   19.7538   20.4008   22.2890 C   0  0  0  0  0  0  0  0  0  0  0  0
   19.1002   20.6709   21.4489 H   0  0  0  0  0  0  0  0  0  0  0  0
   20.1121   21.3566   22.6955 H   0  0  0  0  0  0  0  0  0  0  0  0
   18.8933   19.6894   23.3695 C   0  0  0  0  0  0  0  0  0  0  0  0
   18.0183   20.3279   23.5500 H   0  0  0  0  0  0  0  0  0  0  0  0
   18.4911   18.7429   22.9871 H   0  0  0  0  0  0  0  0  0  0  0  0
   19.6121   19.4598   24.7201 C   0  0  1  0  0  0  0  0  0  0  0  0
   20.1885   20.3588   24.9589 H   0  0  0  0  0  0  0  0  0  0  0  0
   18.5848   19.2349   25.8418 C   0  0  0  0  0  0  0  0  0  0  0  0
   17.9670   18.3502   25.6425 H   0  0  0  0  0  0  0  0  0  0  0  0
   17.9191   20.1012   25.9419 H   0  0  0  0  0  0  0  0  0  0  0  0
   19.0874   19.0910   26.8062 H   0  0  0  0  0  0  0  0  0  0  0  0
   20.5821   18.3116   24.6826 N   0  3  0  0  0  0  0  0  0  0  0  0
   21.0958   18.2269   25.5644 H   0  0  0  0  0  0  0  0  0  0  0  0
   20.0992   17.4237   24.5230 H   0  0  0  0  0  0  0  0  0  0  0  0
   21.2676   18.4301   23.9331 H   0  0  0  0  0  0  0  0  0  0  0  0
  1  2  1  0  0  0  0
  1  3  1  0  0  0  0
  1  4  1  0  0  0  0
  1  5  1  0  0  0  0
  5  6  1  0  0  0  0
  5  7  1  0  0  0  0
  5  8  1  0  0  0  0
  8  9  1  0  0  0  0
  8 10  1  0  0  0  0
  8 11  1  0  0  0  0
 11 12  1  0  0  0  0
 11 13  1  0  0  0  0
 11 14  1  0  0  0  0
 14 15  1  0  0  0  0
 14 16  1  0  0  0  0
 14 17  1  0  0  0  0
 17 18  1  0  0  0  0
 17 19  1  0  0  0  0
 19 20  1  0  0  0  0
 19 21  1  0  0  0  0
 19 22  1  0  0  0  0
 17 23  1  0  0  0  0
 23 24  1  0  0  0  0
 23 25  1  0  0  0  0
 23 26  1  0  0  0  0
M  END
> <VM2 Rank>
74

> <Conf_Id>
231

> <Probability>
0.01

> <Sum Probability>
99.97

> <Delta G>
4.740

> <G>
28.450

> <E>
-4.948

> <-TS>
33.398

> <U+W>
-26.410

> <U>
27.564

> <W>
-53.974

> <W(PB)>
-56.203

> <W(SA)>
2.228

> <Valence>
5.430

> <Coulomb>
21.472

> <VdW>
0.662

> <VdW6>
-9.933

> <VdW12>
10.595

> <Bond>
0.322

> <Angle>
2.461

> <Pdih>
2.647

> <Idih>
0.000

> <Tether>
0.000

$$$$
VeraChem MOL file


 26 25  0  0  0  0  0  0  0  0999 V2000     
   20.9567   17.7827   20.0837 C   0  0  0  0  0  0  0  0  0  0  0  0
   20.5622   16.8570   19.6449 H   0  0  0  0  0  0  0  0  0  0  0  0
   21.2853   18.4312   19.2611 H   0  0  0  0  0  0  0  0  0  0  0  0
   21.8369   17.5216   20.6854 H   0  0  0  0  0  0  0  0  0  0  0  0
   19.8808   18.4793   20.9433 C   0  0  0  0  0  0  0  0  0  0  0  0
   19.5445   17.7861   21.7244 H   0  0  0  0  0  0  0  0  0  0  0  0
   19.0028   18.6984   20.3197 H   0  0  0  0  0  0  0  0  0  0  0  0
   20.4123   19.7917   21.5670 C   0  0  0  0  0  0  0  0  0  0  0  0
   21.3080   19.5975   22.1692 H   0  0  0  0  0  0  0  0  0  0  0  0
   20.7462   20.4534   20.7556 H   0  0  0  0  0  0  0  0  0  0  0  0
   19.3561   20.5557   22.4058 C   0  0  0  0  0  0  0  0  0  0  0  0
   18.5395   20.8642   21.7384 H   0  0  0  0  0  0  0  0  0  0  0  0
   19.8077   21.4883   22.7713 H   0  0  0  0  0  0  0  0  0  0  0  0
   18.7403   19.7945   23.6124 C   0  0  0  0  0  0  0  0  0  0  0  0
   17.9817   20.4558   24.0518 H   0  0  0  0  0  0  0  0  0  0  0  0
   18.1924   18.9061   23.2742 H   0  0  0  0  0  0  0  0  0  0  0  0
   19.7526   19.4086   24.7171 C   0  0  1  0  0  0  0  0  0  0  0  0
   20.4572   20.2366   24.8413 H   0  0  0  0  0  0  0  0  0  0  0  0
   19.0289   19.1872   26.0556 C   0  0  0  0  0  0  0  0  0  0  0  0
   18.2949   18.3751   25.9803 H   0  0  0  0  0  0  0  0  0  0  0  0
   18.5018   20.0965   26.3702 H   0  0  0  0  0  0  0  0  0  0  0  0
   19.7444   18.9296   26.8463 H   0  0  0  0  0  0  0  0  0  0  0  0
   20.5602   18.1883   24.3691 N   0  3  0  0  0  0  0  0  0  0  0  0
   19.9679   17.3557   24.3134 H   0  0  0  0  0  0  0  0  0  0  0  0
   21.0252   18.2972   23.4642 H   0  0  0  0  0  0  0  0  0  0  0  0
   21.2819   18.0040   25.0720 H   0  0  0  0  0  0  0  0  0  0  0  0
  1  2  1  0  0  0  0
  1  3  1  0  0  0  0
  1  4  1  0  0  0  0
  1  5  1  0  0  0  0
  5  6  1  0  0  0  0
  5  7  1  0  0  0  0
  5  8  1  0  0  0  0
  8  9  1  0  0  0  0
  8 10  1  0  0  0  0
  8 11  1  0  0  0  0
 11 12  1  0  0  0  0
 11 13  1  0  0  0  0
 11 14  1  0  0  0  0
 14 15  1  0  0  0  0
 14 16  1  0  0  0  0
 14 17  1  0  0  0  0
 17 18  1  0  0  0  0
 17 19  1  0  0  0  0
 19 20  1  0  0  0  0
 19 21  1  0  0  0  0
 19 22  1  0  0  0  0
 17 23  1  0  0  0  0
 23 24  1  0  0  0  0
 23 25  1  0  0  0  0
 23 26  1  0  0  0  0
M  END
> <VM2 Rank>
75

> <Conf_Id>
556

> <Probability>
0.01

> <Sum Probability>
99.98

> <Delta G>
4.843

> <G>
28.553

> <E>
-4.670

> <-TS>
33.223

> <U+W>
-26.132

> <U>
27.025

> <W>
-53.157

> <W(PB)>
-55.402

> <W(SA)>
2.245

> <Valence>
5.027

> <Coulomb>
21.327

> <VdW>
0.671

> <VdW6>
-9.248

> <VdW12>
9.919

> <Bond>
0.272

> <Angle>
2.161

> <Pdih>
2.594

> <Idih>
0.000

> <Tether>
0.000

$$$$
VeraChem MOL file


 26 25  0  0  0  0  0  0  0  0999 V2000     
   20.6618   17.7452   20.0998 C   0  0  0  0  0  0  0  0  0  0  0  0
   21.6579   17.6305   19.6529 H   0  0  0  0  0  0  0  0  0  0  0  0
   20.4320   16.8243   20.6511 H   0  0  0  0  0  0  0  0  0  0  0  0
   19.9360   17.8440   19.2821 H   0  0  0  0  0  0  0  0  0  0  0  0
   20.6207   18.9762   21.0296 C   0  0  0  0  0  0  0  0  0  0  0  0
   20.8857   19.8749   20.4552 H   0  0  0  0  0  0  0  0  0  0  0  0
   21.3880   18.8634   21.8055 H   0  0  0  0  0  0  0  0  0  0  0  0
   19.2230   19.1626   21.6661 C   0  0  0  0  0  0  0  0  0  0  0  0
   18.4834   19.2667   20.8601 H   0  0  0  0  0  0  0  0  0  0  0  0
   18.9290   18.2616   22.2171 H   0  0  0  0  0  0  0  0  0  0  0  0
   19.1181   20.4100   22.5802 C   0  0  0  0  0  0  0  0  0  0  0  0
   18.0799   20.5111   22.9237 H   0  0  0  0  0  0  0  0  0  0  0  0
   19.3068   21.3030   21.9686 H   0  0  0  0  0  0  0  0  0  0  0  0
   20.0744   20.4520   23.8084 C   0  0  0  0  0  0  0  0  0  0  0  0
   21.1160   20.5076   23.4681 H   0  0  0  0  0  0  0  0  0  0  0  0
   19.8961   21.4003   24.3321 H   0  0  0  0  0  0  0  0  0  0  0  0
   19.9404   19.3146   24.8536 C   0  0  1  0  0  0  0  0  0  0  0  0
   20.5161   19.6223   25.7321 H   0  0  0  0  0  0  0  0  0  0  0  0
   18.4863   19.1056   25.3113 C   0  0  0  0  0  0  0  0  0  0  0  0
   17.8613   18.7033   24.5052 H   0  0  0  0  0  0  0  0  0  0  0  0
   18.0456   20.0517   25.6494 H   0  0  0  0  0  0  0  0  0  0  0  0
   18.4454   18.4009   26.1508 H   0  0  0  0  0  0  0  0  0  0  0  0
   20.5633   18.0216   24.4051 N   0  3  0  0  0  0  0  0  0  0  0  0
   20.4686   17.2937   25.1191 H   0  0  0  0  0  0  0  0  0  0  0  0
   20.1239   17.6781   23.5481 H   0  0  0  0  0  0  0  0  0  0  0  0
   21.5630   18.1349   24.2154 H   0  0  0  0  0  0  0  0  0  0  0  0
  1  2  1  0  0  0  0
  1  3  1  0  0  0  0
  1  4  1  0  0  0  0
  1  5  1  0  0  0  0
  5  6  1  0  0  0  0
  5  7  1  0  0  0  0
  5  8  1  0  0  0  0
  8  9  1  0  0  0  0
  8 10  1  0  0  0  0
  8 11  1  0  0  0  0
 11 12  1  0  0  0  0
 11 13  1  0  0  0  0
 11 14  1  0  0  0  0
 14 15  1  0  0  0  0
 14 16  1  0  0  0  0
 14 17  1  0  0  0  0
 17 18  1  0  0  0  0
 17 19  1  0  0  0  0
 19 20  1  0  0  0  0
 19 21  1  0  0  0  0
 19 22  1  0  0  0  0
 17 23  1  0  0  0  0
 23 24  1  0  0  0  0
 23 25  1  0  0  0  0
 23 26  1  0  0  0  0
M  END
> <VM2 Rank>
76

> <Conf_Id>
496

> <Probability>
0.00

> <Sum Probability>
99.98

> <Delta G>
4.903

> <G>
28.613

> <E>
-5.030

> <-TS>
33.643

> <U+W>
-26.492

> <U>
27.281

> <W>
-53.773

> <W(PB)>
-55.969

> <W(SA)>
2.197

> <Valence>
5.160

> <Coulomb>
21.563

> <VdW>
0.557

> <VdW6>
-10.215

> <VdW12>
10.772

> <Bond>
0.332

> <Angle>
2.658

> <Pdih>
2.170

> <Idih>
0.000

> <Tether>
0.000

$$$$
VeraChem MOL file


 26 25  0  0  0  0  0  0  0  0999 V2000     
   20.1997   19.0779   19.4451 C   0  0  0  0  0  0  0  0  0  0  0  0
   20.5186   18.5802   18.5201 H   0  0  0  0  0  0  0  0  0  0  0  0
   19.2036   19.5045   19.2695 H   0  0  0  0  0  0  0  0  0  0  0  0
   20.8989   19.9019   19.6320 H   0  0  0  0  0  0  0  0  0  0  0  0
   20.1747   18.0716   20.6183 C   0  0  0  0  0  0  0  0  0  0  0  0
   21.1878   17.6854   20.7977 H   0  0  0  0  0  0  0  0  0  0  0  0
   19.5642   17.2063   20.3243 H   0  0  0  0  0  0  0  0  0  0  0  0
   19.5969   18.6610   21.9281 C   0  0  0  0  0  0  0  0  0  0  0  0
   18.5944   19.0676   21.7367 H   0  0  0  0  0  0  0  0  0  0  0  0
   19.4735   17.8333   22.6360 H   0  0  0  0  0  0  0  0  0  0  0  0
   20.4959   19.7502   22.5641 C   0  0  0  0  0  0  0  0  0  0  0  0
   20.7071   20.5235   21.8150 H   0  0  0  0  0  0  0  0  0  0  0  0
   21.4709   19.3173   22.8245 H   0  0  0  0  0  0  0  0  0  0  0  0
   19.8830   20.4668   23.8013 C   0  0  0  0  0  0  0  0  0  0  0  0
   20.5946   21.2426   24.1127 H   0  0  0  0  0  0  0  0  0  0  0  0
   18.9787   21.0117   23.4998 H   0  0  0  0  0  0  0  0  0  0  0  0
   19.5752   19.6023   25.0517 C   0  0  1  0  0  0  0  0  0  0  0  0
   19.6164   20.2751   25.9139 H   0  0  0  0  0  0  0  0  0  0  0  0
   18.1516   19.0149   25.0314 C   0  0  0  0  0  0  0  0  0  0  0  0
   18.0093   18.2851   24.2292 H   0  0  0  0  0  0  0  0  0  0  0  0
   17.4062   19.8095   24.9030 H   0  0  0  0  0  0  0  0  0  0  0  0
   17.9333   18.5117   25.9813 H   0  0  0  0  0  0  0  0  0  0  0  0
   20.6110   18.5433   25.3141 N   0  3  0  0  0  0  0  0  0  0  0  0
   21.5444   18.9519   25.4159 H   0  0  0  0  0  0  0  0  0  0  0  0
   20.4081   18.0244   26.1731 H   0  0  0  0  0  0  0  0  0  0  0  0
   20.6520   17.8693   24.5459 H   0  0  0  0  0  0  0  0  0  0  0  0
  1  2  1  0  0  0  0
  1  3  1  0  0  0  0
  1  4  1  0  0  0  0
  1  5  1  0  0  0  0
  5  6  1  0  0  0  0
  5  7  1  0  0  0  0
  5  8  1  0  0  0  0
  8  9  1  0  0  0  0
  8 10  1  0  0  0  0
  8 11  1  0  0  0  0
 11 12  1  0  0  0  0
 11 13  1  0  0  0  0
 11 14  1  0  0  0  0
 14 15  1  0  0  0  0
 14 16  1  0  0  0  0
 14 17  1  0  0  0  0
 17 18  1  0  0  0  0
 17 19  1  0  0  0  0
 19 20  1  0  0  0  0
 19 21  1  0  0  0  0
 19 22  1  0  0  0  0
 17 23  1  0  0  0  0
 23 24  1  0  0  0  0
 23 25  1  0  0  0  0
 23 26  1  0  0  0  0
M  END
> <VM2 Rank>
77

> <Conf_Id>
137

> <Probability>
0.00

> <Sum Probability>
99.99

> <Delta G>
4.932

> <G>
28.642

> <E>
-4.460

> <-TS>
33.102

> <U+W>
-25.922

> <U>
28.238

> <W>
-54.160

> <W(PB)>
-56.416

> <W(SA)>
2.256

> <Valence>
6.520

> <Coulomb>
20.564

> <VdW>
1.154

> <VdW6>
-9.254

> <VdW12>
10.408

> <Bond>
0.327

> <Angle>
2.699

> <Pdih>
3.494

> <Idih>
0.000

> <Tether>
0.000

$$$$
VeraChem MOL file


 26 25  0  0  0  0  0  0  0  0999 V2000     
   20.7936   19.1847   19.9617 C   0  0  0  0  0  0  0  0  0  0  0  0
   20.0158   18.9741   19.2163 H   0  0  0  0  0  0  0  0  0  0  0  0
   20.7231   20.2428   20.2429 H   0  0  0  0  0  0  0  0  0  0  0  0
   21.7690   19.0348   19.4810 H   0  0  0  0  0  0  0  0  0  0  0  0
   20.6487   18.2613   21.1921 C   0  0  0  0  0  0  0  0  0  0  0  0
   21.4288   18.5049   21.9239 H   0  0  0  0  0  0  0  0  0  0  0  0
   20.8396   17.2252   20.8794 H   0  0  0  0  0  0  0  0  0  0  0  0
   19.2451   18.3296   21.8469 C   0  0  0  0  0  0  0  0  0  0  0  0
   18.4995   18.0132   21.1044 H   0  0  0  0  0  0  0  0  0  0  0  0
   19.1780   17.5886   22.6523 H   0  0  0  0  0  0  0  0  0  0  0  0
   18.8344   19.7264   22.3843 C   0  0  0  0  0  0  0  0  0  0  0  0
   17.8194   19.6618   22.7978 H   0  0  0  0  0  0  0  0  0  0  0  0
   18.7468   20.4174   21.5356 H   0  0  0  0  0  0  0  0  0  0  0  0
   19.7840   20.3671   23.4386 C   0  0  0  0  0  0  0  0  0  0  0  0
   20.7734   20.5349   22.9951 H   0  0  0  0  0  0  0  0  0  0  0  0
   19.3985   21.3704   23.6622 H   0  0  0  0  0  0  0  0  0  0  0  0
   19.9494   19.6255   24.7904 C   0  0  1  0  0  0  0  0  0  0  0  0
   20.4684   20.3123   25.4661 H   0  0  0  0  0  0  0  0  0  0  0  0
   18.5983   19.2795   25.4401 C   0  0  0  0  0  0  0  0  0  0  0  0
   17.9610   20.1697   25.5102 H   0  0  0  0  0  0  0  0  0  0  0  0
   18.7481   18.8966   26.4569 H   0  0  0  0  0  0  0  0  0  0  0  0
   18.0594   18.5135   24.8698 H   0  0  0  0  0  0  0  0  0  0  0  0
   20.8346   18.4139   24.7000 N   0  3  0  0  0  0  0  0  0  0  0  0
   21.7709   18.6595   24.3669 H   0  0  0  0  0  0  0  0  0  0  0  0
   20.9434   17.9621   25.6124 H   0  0  0  0  0  0  0  0  0  0  0  0
   20.4477   17.7223   24.0543 H   0  0  0  0  0  0  0  0  0  0  0  0
  1  2  1  0  0  0  0
  1  3  1  0  0  0  0
  1  4  1  0  0  0  0
  1  5  1  0  0  0  0
  5  6  1  0  0  0  0
  5  7  1  0  0  0  0
  5  8  1  0  0  0  0
  8  9  1  0  0  0  0
  8 10  1  0  0  0  0
  8 11  1  0  0  0  0
 11 12  1  0  0  0  0
 11 13  1  0  0  0  0
 11 14  1  0  0  0  0
 14 15  1  0  0  0  0
 14 16  1  0  0  0  0
 14 17  1  0  0  0  0
 17 18  1  0  0  0  0
 17 19  1  0  0  0  0
 19 20  1  0  0  0  0
 19 21  1  0  0  0  0
 19 22  1  0  0  0  0
 17 23  1  0  0  0  0
 23 24  1  0  0  0  0
 23 25  1  0  0  0  0
 23 26  1  0  0  0  0
M  END
> <VM2 Rank>
78

> <Conf_Id>
710

> <Probability>
0.00

> <Sum Probability>
99.99

> <Delta G>
5.060

> <G>
28.770

> <E>
-5.031

> <-TS>
33.801

> <U+W>
-26.493

> <U>
27.883

> <W>
-54.375

> <W(PB)>
-56.572

> <W(SA)>
2.197

> <Valence>
5.604

> <Coulomb>
21.671

> <VdW>
0.608

> <VdW6>
-10.842

> <VdW12>
11.450

> <Bond>
0.377

> <Angle>
2.942

> <Pdih>
2.284

> <Idih>
0.000

> <Tether>
0.000

$$$$
VeraChem MOL file


 26 25  0  0  0  0  0  0  0  0999 V2000     
   19.8369   19.4878   19.8365 C   0  0  0  0  0  0  0  0  0  0  0  0
   20.6185   18.9408   19.2935 H   0  0  0  0  0  0  0  0  0  0  0  0
   19.0588   19.7670   19.1145 H   0  0  0  0  0  0  0  0  0  0  0  0
   20.2739   20.4153   20.2267 H   0  0  0  0  0  0  0  0  0  0  0  0
   19.2392   18.6235   20.9695 C   0  0  0  0  0  0  0  0  0  0  0  0
   18.7163   17.7668   20.5221 H   0  0  0  0  0  0  0  0  0  0  0  0
   18.4726   19.1988   21.5037 H   0  0  0  0  0  0  0  0  0  0  0  0
   20.3043   18.0889   21.9609 C   0  0  0  0  0  0  0  0  0  0  0  0
   19.8276   17.4186   22.6856 H   0  0  0  0  0  0  0  0  0  0  0  0
   21.0091   17.4550   21.4054 H   0  0  0  0  0  0  0  0  0  0  0  0
   21.1153   19.1789   22.7095 C   0  0  0  0  0  0  0  0  0  0  0  0
   21.7227   19.7244   21.9752 H   0  0  0  0  0  0  0  0  0  0  0  0
   21.8463   18.6886   23.3657 H   0  0  0  0  0  0  0  0  0  0  0  0
   20.2966   20.2206   23.5281 C   0  0  0  0  0  0  0  0  0  0  0  0
   21.0099   20.9690   23.8971 H   0  0  0  0  0  0  0  0  0  0  0  0
   19.6222   20.7781   22.8661 H   0  0  0  0  0  0  0  0  0  0  0  0
   19.5122   19.7036   24.7629 C   0  0  1  0  0  0  0  0  0  0  0  0
   19.3688   20.5655   25.4218 H   0  0  0  0  0  0  0  0  0  0  0  0
   18.1045   19.1895   24.4127 C   0  0  0  0  0  0  0  0  0  0  0  0
   18.1318   18.2649   23.8288 H   0  0  0  0  0  0  0  0  0  0  0  0
   17.5457   19.9410   23.8416 H   0  0  0  0  0  0  0  0  0  0  0  0
   17.5365   18.9847   25.3284 H   0  0  0  0  0  0  0  0  0  0  0  0
   20.2790   18.6953   25.5738 N   0  3  0  0  0  0  0  0  0  0  0  0
   21.1829   19.0688   25.8768 H   0  0  0  0  0  0  0  0  0  0  0  0
   19.7634   18.4198   26.4144 H   0  0  0  0  0  0  0  0  0  0  0  0
   20.4612   17.8482   25.0304 H   0  0  0  0  0  0  0  0  0  0  0  0
  1  2  1  0  0  0  0
  1  3  1  0  0  0  0
  1  4  1  0  0  0  0
  1  5  1  0  0  0  0
  5  6  1  0  0  0  0
  5  7  1  0  0  0  0
  5  8  1  0  0  0  0
  8  9  1  0  0  0  0
  8 10  1  0  0  0  0
  8 11  1  0  0  0  0
 11 12  1  0  0  0  0
 11 13  1  0  0  0  0
 11 14  1  0  0  0  0
 14 15  1  0  0  0  0
 14 16  1  0  0  0  0
 14 17  1  0  0  0  0
 17 18  1  0  0  0  0
 17 19  1  0  0  0  0
 19 20  1  0  0  0  0
 19 21  1  0  0  0  0
 19 22  1  0  0  0  0
 17 23  1  0  0  0  0
 23 24  1  0  0  0  0
 23 25  1  0  0  0  0
 23 26  1  0  0  0  0
M  END
> <VM2 Rank>
79

> <Conf_Id>
84

> <Probability>
0.00

> <Sum Probability>
99.99

> <Delta G>
5.265

> <G>
28.975

> <E>
-4.848

> <-TS>
33.822

> <U+W>
-26.310

> <U>
28.161

> <W>
-54.471

> <W(PB)>
-56.648

> <W(SA)>
2.177

> <Valence>
6.893

> <Coulomb>
20.537

> <VdW>
0.732

> <VdW6>
-10.681

> <VdW12>
11.413

> <Bond>
0.380

> <Angle>
3.328

> <Pdih>
3.184

> <Idih>
0.000

> <Tether>
0.000

$$$$
VeraChem MOL file


 26 25  0  0  0  0  0  0  0  0999 V2000     
   21.4036   18.3184   20.6712 C   0  0  0  0  0  0  0  0  0  0  0  0
   20.9751   17.9264   19.7397 H   0  0  0  0  0  0  0  0  0  0  0  0
   22.4707   18.5051   20.4938 H   0  0  0  0  0  0  0  0  0  0  0  0
   21.3296   17.5364   21.4353 H   0  0  0  0  0  0  0  0  0  0  0  0
   20.6924   19.6224   21.1007 C   0  0  0  0  0  0  0  0  0  0  0  0
   20.8955   20.3903   20.3412 H   0  0  0  0  0  0  0  0  0  0  0  0
   21.1385   20.0030   22.0256 H   0  0  0  0  0  0  0  0  0  0  0  0
   19.1540   19.4755   21.2372 C   0  0  0  0  0  0  0  0  0  0  0  0
   18.7070   20.4647   21.4071 H   0  0  0  0  0  0  0  0  0  0  0  0
   18.7630   19.1412   20.2662 H   0  0  0  0  0  0  0  0  0  0  0  0
   18.6505   18.4900   22.3278 C   0  0  0  0  0  0  0  0  0  0  0  0
   19.2579   17.5776   22.3486 H   0  0  0  0  0  0  0  0  0  0  0  0
   17.6481   18.1537   22.0287 H   0  0  0  0  0  0  0  0  0  0  0  0
   18.5171   19.0941   23.7525 C   0  0  0  0  0  0  0  0  0  0  0  0
   17.8160   19.9384   23.7138 H   0  0  0  0  0  0  0  0  0  0  0  0
   18.0507   18.3444   24.4056 H   0  0  0  0  0  0  0  0  0  0  0  0
   19.8347   19.5693   24.4010 C   0  0  1  0  0  0  0  0  0  0  0  0
   20.2497   20.3726   23.7871 H   0  0  0  0  0  0  0  0  0  0  0  0
   19.5657   20.1383   25.8031 C   0  0  0  0  0  0  0  0  0  0  0  0
   18.8524   20.9706   25.7553 H   0  0  0  0  0  0  0  0  0  0  0  0
   20.4916   20.5189   26.2517 H   0  0  0  0  0  0  0  0  0  0  0  0
   19.1524   19.3721   26.4709 H   0  0  0  0  0  0  0  0  0  0  0  0
   20.8701   18.4801   24.4606 N   0  3  0  0  0  0  0  0  0  0  0  0
   21.0842   18.1285   23.5233 H   0  0  0  0  0  0  0  0  0  0  0  0
   21.7443   18.8160   24.8747 H   0  0  0  0  0  0  0  0  0  0  0  0
   20.5464   17.6895   25.0243 H   0  0  0  0  0  0  0  0  0  0  0  0
  1  2  1  0  0  0  0
  1  3  1  0  0  0  0
  1  4  1  0  0  0  0
  1  5  1  0  0  0  0
  5  6  1  0  0  0  0
  5  7  1  0  0  0  0
  5  8  1  0  0  0  0
  8  9  1  0  0  0  0
  8 10  1  0  0  0  0
  8 11  1  0  0  0  0
 11 12  1  0  0  0  0
 11 13  1  0  0  0  0
 11 14  1  0  0  0  0
 14 15  1  0  0  0  0
 14 16  1  0  0  0  0
 14 17  1  0  0  0  0
 17 18  1  0  0  0  0
 17 19  1  0  0  0  0
 19 20  1  0  0  0  0
 19 21  1  0  0  0  0
 19 22  1  0  0  0  0
 17 23  1  0  0  0  0
 23 24  1  0  0  0  0
 23 25  1  0  0  0  0
 23 26  1  0  0  0  0
M  END
> <VM2 Rank>
80

> <Conf_Id>
1040

> <Probability>
0.00

> <Sum Probability>
100.00

> <Delta G>
5.340

> <G>
29.050

> <E>
-4.378

> <-TS>
33.428

> <U+W>
-25.840

> <U>
27.602

> <W>
-53.442

> <W(PB)>
-55.679

> <W(SA)>
2.236

> <Valence>
6.052

> <Coulomb>
21.011

> <VdW>
0.539

> <VdW6>
-9.880

> <VdW12>
10.420

> <Bond>
0.319

> <Angle>
2.619

> <Pdih>
3.114

> <Idih>
0.000

> <Tether>
0.000

$$$$
VeraChem MOL file


 26 25  0  0  0  0  0  0  0  0999 V2000     
   20.2276   20.1768   19.8145 C   0  0  0  0  0  0  0  0  0  0  0  0
   19.3393   20.7996   19.9822 H   0  0  0  0  0  0  0  0  0  0  0  0
   21.0594   20.8414   19.5472 H   0  0  0  0  0  0  0  0  0  0  0  0
   20.0295   19.5229   18.9551 H   0  0  0  0  0  0  0  0  0  0  0  0
   20.5719   19.3518   21.0724 C   0  0  0  0  0  0  0  0  0  0  0  0
   20.8075   20.0371   21.8944 H   0  0  0  0  0  0  0  0  0  0  0  0
   21.4830   18.7671   20.8832 H   0  0  0  0  0  0  0  0  0  0  0  0
   19.4161   18.3981   21.4611 C   0  0  0  0  0  0  0  0  0  0  0  0
   18.4791   18.9556   21.5926 H   0  0  0  0  0  0  0  0  0  0  0  0
   19.2427   17.7175   20.6160 H   0  0  0  0  0  0  0  0  0  0  0  0
   19.7097   17.5420   22.7198 C   0  0  0  0  0  0  0  0  0  0  0  0
   20.7786   17.2921   22.7674 H   0  0  0  0  0  0  0  0  0  0  0  0
   19.1891   16.5816   22.6005 H   0  0  0  0  0  0  0  0  0  0  0  0
   19.2448   18.1529   24.0691 C   0  0  0  0  0  0  0  0  0  0  0  0
   18.1607   18.3275   24.0489 H   0  0  0  0  0  0  0  0  0  0  0  0
   19.4012   17.3862   24.8395 H   0  0  0  0  0  0  0  0  0  0  0  0
   19.9903   19.4416   24.4905 C   0  0  1  0  0  0  0  0  0  0  0  0
   20.9329   19.4880   23.9375 H   0  0  0  0  0  0  0  0  0  0  0  0
   19.1630   20.7025   24.1793 C   0  0  0  0  0  0  0  0  0  0  0  0
   18.2359   20.7209   24.7658 H   0  0  0  0  0  0  0  0  0  0  0  0
   18.8904   20.7543   23.1196 H   0  0  0  0  0  0  0  0  0  0  0  0
   19.7337   21.6080   24.4193 H   0  0  0  0  0  0  0  0  0  0  0  0
   20.3646   19.4223   25.9474 N   0  3  0  0  0  0  0  0  0  0  0  0
   20.9553   18.6170   26.1743 H   0  0  0  0  0  0  0  0  0  0  0  0
   20.8839   20.2643   26.2116 H   0  0  0  0  0  0  0  0  0  0  0  0
   19.5358   19.3748   26.5462 H   0  0  0  0  0  0  0  0  0  0  0  0
  1  2  1  0  0  0  0
  1  3  1  0  0  0  0
  1  4  1  0  0  0  0
  1  5  1  0  0  0  0
  5  6  1  0  0  0  0
  5  7  1  0  0  0  0
  5  8  1  0  0  0  0
  8  9  1  0  0  0  0
  8 10  1  0  0  0  0
  8 11  1  0  0  0  0
 11 12  1  0  0  0  0
 11 13  1  0  0  0  0
 11 14  1  0  0  0  0
 14 15  1  0  0  0  0
 14 16  1  0  0  0  0
 14 17  1  0  0  0  0
 17 18  1  0  0  0  0
 17 19  1  0  0  0  0
 19 20  1  0  0  0  0
 19 21  1  0  0  0  0
 19 22  1  0  0  0  0
 17 23  1  0  0  0  0
 23 24  1  0  0  0  0
 23 25  1  0  0  0  0
 23 26  1  0  0  0  0
M  END
> <VM2 Rank>
81

> <Conf_Id>
95

> <Probability>
0.00

> <Sum Probability>
100.00

> <Delta G>
5.956

> <G>
29.666

> <E>
-3.530

> <-TS>
33.196

> <U+W>
-24.992

> <U>
29.319

> <W>
-54.311

> <W(PB)>
-56.566

> <W(SA)>
2.254

> <Valence>
8.263

> <Coulomb>
20.281

> <VdW>
0.775

> <VdW6>
-9.226

> <VdW12>
10.001

> <Bond>
0.262

> <Angle>
2.115

> <Pdih>
5.886

> <Idih>
0.000

> <Tether>
0.000

$$$$
VeraChem MOL file


 26 25  0  0  0  0  0  0  0  0999 V2000     
   20.0040   20.4644   20.8048 C   0  0  0  0  0  0  0  0  0  0  0  0
   19.3334   20.6959   21.6393 H   0  0  0  0  0  0  0  0  0  0  0  0
   20.6936   21.3096   20.6825 H   0  0  0  0  0  0  0  0  0  0  0  0
   19.3929   20.3994   19.8951 H   0  0  0  0  0  0  0  0  0  0  0  0
   20.7889   19.1512   21.0319 C   0  0  0  0  0  0  0  0  0  0  0  0
   21.5007   19.2598   21.8610 H   0  0  0  0  0  0  0  0  0  0  0  0
   21.4010   18.9668   20.1379 H   0  0  0  0  0  0  0  0  0  0  0  0
   19.8694   17.9254   21.2619 C   0  0  0  0  0  0  0  0  0  0  0  0
   18.9047   18.0763   20.7580 H   0  0  0  0  0  0  0  0  0  0  0  0
   20.3277   17.0617   20.7604 H   0  0  0  0  0  0  0  0  0  0  0  0
   19.6370   17.5273   22.7445 C   0  0  0  0  0  0  0  0  0  0  0  0
   20.5916   17.2511   23.2102 H   0  0  0  0  0  0  0  0  0  0  0  0
   19.0393   16.6053   22.7426 H   0  0  0  0  0  0  0  0  0  0  0  0
   18.8845   18.5734   23.6101 C   0  0  0  0  0  0  0  0  0  0  0  0
   18.0862   19.0287   23.0094 H   0  0  0  0  0  0  0  0  0  0  0  0
   18.3789   18.0506   24.4328 H   0  0  0  0  0  0  0  0  0  0  0  0
   19.7839   19.6748   24.2175 C   0  0  1  0  0  0  0  0  0  0  0  0
   20.3469   20.1528   23.4125 H   0  0  0  0  0  0  0  0  0  0  0  0
   18.9227   20.7489   24.9009 C   0  0  0  0  0  0  0  0  0  0  0  0
   18.2243   21.2019   24.1863 H   0  0  0  0  0  0  0  0  0  0  0  0
   19.5516   21.5516   25.3052 H   0  0  0  0  0  0  0  0  0  0  0  0
   18.3385   20.3235   25.7265 H   0  0  0  0  0  0  0  0  0  0  0  0
   20.7976   19.1226   25.1825 N   0  3  0  0  0  0  0  0  0  0  0  0
   21.3956   19.8623   25.5614 H   0  0  0  0  0  0  0  0  0  0  0  0
   20.3445   18.6599   25.9749 H   0  0  0  0  0  0  0  0  0  0  0  0
   21.4079   18.4355   24.7326 H   0  0  0  0  0  0  0  0  0  0  0  0
  1  2  1  0  0  0  0
  1  3  1  0  0  0  0
  1  4  1  0  0  0  0
  1  5  1  0  0  0  0
  5  6  1  0  0  0  0
  5  7  1  0  0  0  0
  5  8  1  0  0  0  0
  8  9  1  0  0  0  0
  8 10  1  0  0  0  0
  8 11  1  0  0  0  0
 11 12  1  0  0  0  0
 11 13  1  0  0  0  0
 11 14  1  0  0  0  0
 14 15  1  0  0  0  0
 14 16  1  0  0  0  0
 14 17  1  0  0  0  0
 17 18  1  0  0  0  0
 17 19  1  0  0  0  0
 19 20  1  0  0  0  0
 19 21  1  0  0  0  0
 19 22  1  0  0  0  0
 17 23  1  0  0  0  0
 23 24  1  0  0  0  0
 23 25  1  0  0  0  0
 23 26  1  0  0  0  0
M  END
> <VM2 Rank>
82

> <Conf_Id>
370

> <Probability>
0.00

> <Sum Probability>
100.00

> <Delta G>
5.963

> <G>
29.673

> <E>
-3.803

> <-TS>
33.475

> <U+W>
-25.264

> <U>
29.018

> <W>
-54.283

> <W(PB)>
-56.490

> <W(SA)>
2.207

> <Valence>
7.755

> <Coulomb>
20.779

> <VdW>
0.484

> <VdW6>
-10.173

> <VdW12>
10.657

> <Bond>
0.300

> <Angle>
2.387

> <Pdih>
5.068

> <Idih>
0.000

> <Tether>
0.000

$$$$
VeraChem MOL file


 26 25  0  0  0  0  0  0  0  0999 V2000     
   19.1227   18.4515   20.2129 C   0  0  0  0  0  0  0  0  0  0  0  0
   18.5446   19.3326   20.5181 H   0  0  0  0  0  0  0  0  0  0  0  0
   18.8676   18.2365   19.1671 H   0  0  0  0  0  0  0  0  0  0  0  0
   18.8001   17.5955   20.8195 H   0  0  0  0  0  0  0  0  0  0  0  0
   20.6407   18.6966   20.3589 C   0  0  0  0  0  0  0  0  0  0  0  0
   20.9282   19.5740   19.7630 H   0  0  0  0  0  0  0  0  0  0  0  0
   21.1792   17.8433   19.9234 H   0  0  0  0  0  0  0  0  0  0  0  0
   21.1130   18.8843   21.8230 C   0  0  0  0  0  0  0  0  0  0  0  0
   20.9031   17.9716   22.3936 H   0  0  0  0  0  0  0  0  0  0  0  0
   22.2072   18.9843   21.8085 H   0  0  0  0  0  0  0  0  0  0  0  0
   20.5202   20.1346   22.5289 C   0  0  0  0  0  0  0  0  0  0  0  0
   20.3049   20.9016   21.7722 H   0  0  0  0  0  0  0  0  0  0  0  0
   21.2824   20.5813   23.1824 H   0  0  0  0  0  0  0  0  0  0  0  0
   19.2381   19.8641   23.3630 C   0  0  0  0  0  0  0  0  0  0  0  0
   18.6256   20.7753   23.3460 H   0  0  0  0  0  0  0  0  0  0  0  0
   18.6281   19.0804   22.8981 H   0  0  0  0  0  0  0  0  0  0  0  0
   19.5176   19.5083   24.8417 C   0  0  1  0  0  0  0  0  0  0  0  0
   20.1008   20.3232   25.2815 H   0  0  0  0  0  0  0  0  0  0  0  0
   18.1975   19.3889   25.6201 C   0  0  0  0  0  0  0  0  0  0  0  0
   17.6254   20.3234   25.5639 H   0  0  0  0  0  0  0  0  0  0  0  0
   18.3890   19.1799   26.6799 H   0  0  0  0  0  0  0  0  0  0  0  0
   17.5723   18.5810   25.2199 H   0  0  0  0  0  0  0  0  0  0  0  0
   20.3382   18.2598   25.0055 N   0  3  0  0  0  0  0  0  0  0  0  0
   21.2324   18.3400   24.5136 H   0  0  0  0  0  0  0  0  0  0  0  0
   20.5434   18.0730   25.9911 H   0  0  0  0  0  0  0  0  0  0  0  0
   19.8497   17.4418   24.6323 H   0  0  0  0  0  0  0  0  0  0  0  0
  1  2  1  0  0  0  0
  1  3  1  0  0  0  0
  1  4  1  0  0  0  0
  1  5  1  0  0  0  0
  5  6  1  0  0  0  0
  5  7  1  0  0  0  0
  5  8  1  0  0  0  0
  8  9  1  0  0  0  0
  8 10  1  0  0  0  0
  8 11  1  0  0  0  0
 11 12  1  0  0  0  0
 11 13  1  0  0  0  0
 11 14  1  0  0  0  0
 14 15  1  0  0  0  0
 14 16  1  0  0  0  0
 14 17  1  0  0  0  0
 17 18  1  0  0  0  0
 17 19  1  0  0  0  0
 19 20  1  0  0  0  0
 19 21  1  0  0  0  0
 19 22  1  0  0  0  0
 17 23  1  0  0  0  0
 23 24  1  0  0  0  0
 23 25  1  0  0  0  0
 23 26  1  0  0  0  0
M  END
> <VM2 Rank>
83

> <Conf_Id>
476

> <Probability>
0.00

> <Sum Probability>
100.00

> <Delta G>
6.147

> <G>
29.857

> <E>
-3.255

> <-TS>
33.112

> <U+W>
-24.717

> <U>
29.339

> <W>
-54.055

> <W(PB)>
-56.307

> <W(SA)>
2.251

> <Valence>
7.537

> <Coulomb>
20.790

> <VdW>
1.011

> <VdW6>
-9.264

> <VdW12>
10.275

> <Bond>
0.315

> <Angle>
1.806

> <Pdih>
5.416

> <Idih>
0.000

> <Tether>
0.000

$$$$
VeraChem MOL file


 26 25  0  0  0  0  0  0  0  0999 V2000     
   20.2545   17.7681   20.3996 C   0  0  0  0  0  0  0  0  0  0  0  0
   19.4591   17.1951   20.8933 H   0  0  0  0  0  0  0  0  0  0  0  0
   20.4709   17.2825   19.4393 H   0  0  0  0  0  0  0  0  0  0  0  0
   21.1621   17.7043   21.0127 H   0  0  0  0  0  0  0  0  0  0  0  0
   19.8272   19.2358   20.1783 C   0  0  0  0  0  0  0  0  0  0  0  0
   18.9953   19.2565   19.4605 H   0  0  0  0  0  0  0  0  0  0  0  0
   20.6509   19.7885   19.7051 H   0  0  0  0  0  0  0  0  0  0  0  0
   19.3838   19.9688   21.4700 C   0  0  0  0  0  0  0  0  0  0  0  0
   19.0416   20.9724   21.1822 H   0  0  0  0  0  0  0  0  0  0  0  0
   18.5070   19.4659   21.8971 H   0  0  0  0  0  0  0  0  0  0  0  0
   20.5044   20.1254   22.5338 C   0  0  0  0  0  0  0  0  0  0  0  0
   20.3889   21.0906   23.0462 H   0  0  0  0  0  0  0  0  0  0  0  0
   21.4750   20.1851   22.0224 H   0  0  0  0  0  0  0  0  0  0  0  0
   20.5507   18.9920   23.5953 C   0  0  0  0  0  0  0  0  0  0  0  0
   20.1686   18.0524   23.1788 H   0  0  0  0  0  0  0  0  0  0  0  0
   21.6044   18.8063   23.8417 H   0  0  0  0  0  0  0  0  0  0  0  0
   19.8100   19.3189   24.9142 C   0  0  1  0  0  0  0  0  0  0  0  0
   20.2269   20.2471   25.3170 H   0  0  0  0  0  0  0  0  0  0  0  0
   18.2984   19.5193   24.7109 C   0  0  0  0  0  0  0  0  0  0  0  0
   17.8391   18.6362   24.2498 H   0  0  0  0  0  0  0  0  0  0  0  0
   18.0977   20.3881   24.0733 H   0  0  0  0  0  0  0  0  0  0  0  0
   17.7998   19.7000   25.6711 H   0  0  0  0  0  0  0  0  0  0  0  0
   20.0589   18.2596   25.9519 N   0  3  0  0  0  0  0  0  0  0  0  0
   19.6084   18.4941   26.8409 H   0  0  0  0  0  0  0  0  0  0  0  0
   19.6931   17.3511   25.6547 H   0  0  0  0  0  0  0  0  0  0  0  0
   21.0588   18.1425   26.1394 H   0  0  0  0  0  0  0  0  0  0  0  0
  1  2  1  0  0  0  0
  1  3  1  0  0  0  0
  1  4  1  0  0  0  0
  1  5  1  0  0  0  0
  5  6  1  0  0  0  0
  5  7  1  0  0  0  0
  5  8  1  0  0  0  0
  8  9  1  0  0  0  0
  8 10  1  0  0  0  0
  8 11  1  0  0  0  0
 11 12  1  0  0  0  0
 11 13  1  0  0  0  0
 11 14  1  0  0  0  0
 14 15  1  0  0  0  0
 14 16  1  0  0  0  0
 14 17  1  0  0  0  0
 17 18  1  0  0  0  0
 17 19  1  0  0  0  0
 19 20  1  0  0  0  0
 19 21  1  0  0  0  0
 19 22  1  0  0  0  0
 17 23  1  0  0  0  0
 23 24  1  0  0  0  0
 23 25  1  0  0  0  0
 23 26  1  0  0  0  0
M  END
> <VM2 Rank>
84

> <Conf_Id>
551

> <Probability>
0.00

> <Sum Probability>
100.00

> <Delta G>
6.163

> <G>
29.872

> <E>
-3.428

> <-TS>
33.301

> <U+W>
-24.890

> <U>
29.463

> <W>
-54.353

> <W(PB)>
-56.569

> <W(SA)>
2.216

> <Valence>
8.327

> <Coulomb>
20.082

> <VdW>
1.055

> <VdW6>
-9.536

> <VdW12>
10.591

> <Bond>
0.319

> <Angle>
2.120

> <Pdih>
5.888

> <Idih>
0.000

> <Tether>
0.000

$$$$
VeraChem MOL file


 26 25  0  0  0  0  0  0  0  0999 V2000     
   20.1679   19.9958   20.0630 C   0  0  0  0  0  0  0  0  0  0  0  0
   21.0486   20.3166   20.6331 H   0  0  0  0  0  0  0  0  0  0  0  0
   20.3722   20.1927   19.0027 H   0  0  0  0  0  0  0  0  0  0  0  0
   19.3139   20.6176   20.3610 H   0  0  0  0  0  0  0  0  0  0  0  0
   19.8691   18.4969   20.2860 C   0  0  0  0  0  0  0  0  0  0  0  0
   20.7494   17.9031   20.0026 H   0  0  0  0  0  0  0  0  0  0  0  0
   19.0642   18.1924   19.6025 H   0  0  0  0  0  0  0  0  0  0  0  0
   19.4475   18.1427   21.7349 C   0  0  0  0  0  0  0  0  0  0  0  0
   18.5190   18.6691   21.9883 H   0  0  0  0  0  0  0  0  0  0  0  0
   19.1984   17.0728   21.7560 H   0  0  0  0  0  0  0  0  0  0  0  0
   20.5432   18.4060   22.8035 C   0  0  0  0  0  0  0  0  0  0  0  0
   21.5302   18.2925   22.3344 H   0  0  0  0  0  0  0  0  0  0  0  0
   20.4975   17.6183   23.5663 H   0  0  0  0  0  0  0  0  0  0  0  0
   20.4599   19.8016   23.4876 C   0  0  0  0  0  0  0  0  0  0  0  0
   21.4814   20.1486   23.6909 H   0  0  0  0  0  0  0  0  0  0  0  0
   20.0341   20.5395   22.7975 H   0  0  0  0  0  0  0  0  0  0  0  0
   19.6740   19.8518   24.8214 C   0  0  1  0  0  0  0  0  0  0  0  0
   19.7001   20.8882   25.1721 H   0  0  0  0  0  0  0  0  0  0  0  0
   18.1972   19.4574   24.6552 C   0  0  0  0  0  0  0  0  0  0  0  0
   17.6499   19.6142   25.5928 H   0  0  0  0  0  0  0  0  0  0  0  0
   18.0910   18.4020   24.3771 H   0  0  0  0  0  0  0  0  0  0  0  0
   17.7153   20.0705   23.8837 H   0  0  0  0  0  0  0  0  0  0  0  0
   20.3291   19.0358   25.9024 N   0  3  0  0  0  0  0  0  0  0  0  0
   21.2989   19.3258   26.0565 H   0  0  0  0  0  0  0  0  0  0  0  0
   19.8361   19.1325   26.7946 H   0  0  0  0  0  0  0  0  0  0  0  0
   20.3395   18.0412   25.6642 H   0  0  0  0  0  0  0  0  0  0  0  0
  1  2  1  0  0  0  0
  1  3  1  0  0  0  0
  1  4  1  0  0  0  0
  1  5  1  0  0  0  0
  5  6  1  0  0  0  0
  5  7  1  0  0  0  0
  5  8  1  0  0  0  0
  8  9  1  0  0  0  0
  8 10  1  0  0  0  0
  8 11  1  0  0  0  0
 11 12  1  0  0  0  0
 11 13  1  0  0  0  0
 11 14  1  0  0  0  0
 14 15  1  0  0  0  0
 14 16  1  0  0  0  0
 14 17  1  0  0  0  0
 17 18  1  0  0  0  0
 17 19  1  0  0  0  0
 19 20  1  0  0  0  0
 19 21  1  0  0  0  0
 19 22  1  0  0  0  0
 17 23  1  0  0  0  0
 23 24  1  0  0  0  0
 23 25  1  0  0  0  0
 23 26  1  0  0  0  0
M  END
> <VM2 Rank>
85

> <Conf_Id>
235

> <Probability>
0.00

> <Sum Probability>
100.00

> <Delta G>
6.344

> <G>
30.054

> <E>
-3.334

> <-TS>
33.388

> <U+W>
-24.795

> <U>
29.609

> <W>
-54.405

> <W(PB)>
-56.600

> <W(SA)>
2.195

> <Valence>
8.402

> <Coulomb>
20.135

> <VdW>
1.073

> <VdW6>
-9.965

> <VdW12>
11.038

> <Bond>
0.358

> <Angle>
2.261

> <Pdih>
5.783

> <Idih>
0.000

> <Tether>
0.000

$$$$
VeraChem MOL file


 26 25  0  0  0  0  0  0  0  0999 V2000     
   21.5064   18.5803   21.1445 C   0  0  0  0  0  0  0  0  0  0  0  0
   21.3989   18.0452   22.0941 H   0  0  0  0  0  0  0  0  0  0  0  0
   21.4562   17.8381   20.3373 H   0  0  0  0  0  0  0  0  0  0  0  0
   22.5075   19.0300   21.1213 H   0  0  0  0  0  0  0  0  0  0  0  0
   20.4187   19.6640   20.9595 C   0  0  0  0  0  0  0  0  0  0  0  0
   20.5572   20.1143   19.9665 H   0  0  0  0  0  0  0  0  0  0  0  0
   20.5564   20.4833   21.6780 H   0  0  0  0  0  0  0  0  0  0  0  0
   18.9793   19.0982   21.0503 C   0  0  0  0  0  0  0  0  0  0  0  0
   18.3679   19.6096   20.2940 H   0  0  0  0  0  0  0  0  0  0  0  0
   18.9699   18.0376   20.7633 H   0  0  0  0  0  0  0  0  0  0  0  0
   18.2704   19.2839   22.4190 C   0  0  0  0  0  0  0  0  0  0  0  0
   17.2420   18.9149   22.3024 H   0  0  0  0  0  0  0  0  0  0  0  0
   18.1664   20.3526   22.6423 H   0  0  0  0  0  0  0  0  0  0  0  0
   18.9063   18.5238   23.6150 C   0  0  0  0  0  0  0  0  0  0  0  0
   18.1321   18.3570   24.3757 H   0  0  0  0  0  0  0  0  0  0  0  0
   19.2080   17.5248   23.2747 H   0  0  0  0  0  0  0  0  0  0  0  0
   20.1077   19.2261   24.2937 C   0  0  1  0  0  0  0  0  0  0  0  0
   20.8413   19.4884   23.5281 H   0  0  0  0  0  0  0  0  0  0  0  0
   19.6912   20.5149   25.0258 C   0  0  0  0  0  0  0  0  0  0  0  0
   19.3095   21.2685   24.3282 H   0  0  0  0  0  0  0  0  0  0  0  0
   20.5507   20.9597   25.5422 H   0  0  0  0  0  0  0  0  0  0  0  0
   18.9138   20.3136   25.7732 H   0  0  0  0  0  0  0  0  0  0  0  0
   20.8080   18.2966   25.2461 N   0  3  0  0  0  0  0  0  0  0  0  0
   21.1327   17.4470   24.7761 H   0  0  0  0  0  0  0  0  0  0  0  0
   21.6264   18.7424   25.6702 H   0  0  0  0  0  0  0  0  0  0  0  0
   20.1893   18.0082   26.0088 H   0  0  0  0  0  0  0  0  0  0  0  0
  1  2  1  0  0  0  0
  1  3  1  0  0  0  0
  1  4  1  0  0  0  0
  1  5  1  0  0  0  0
  5  6  1  0  0  0  0
  5  7  1  0  0  0  0
  5  8  1  0  0  0  0
  8  9  1  0  0  0  0
  8 10  1  0  0  0  0
  8 11  1  0  0  0  0
 11 12  1  0  0  0  0
 11 13  1  0  0  0  0
 11 14  1  0  0  0  0
 14 15  1  0  0  0  0
 14 16  1  0  0  0  0
 14 17  1  0  0  0  0
 17 18  1  0  0  0  0
 17 19  1  0  0  0  0
 19 20  1  0  0  0  0
 19 21  1  0  0  0  0
 19 22  1  0  0  0  0
 17 23  1  0  0  0  0
 23 24  1  0  0  0  0
 23 25  1  0  0  0  0
 23 26  1  0  0  0  0
M  END
> <VM2 Rank>
86

> <Conf_Id>
390

> <Probability>
0.00

> <Sum Probability>
100.00

> <Delta G>
6.578

> <G>
30.288

> <E>
-3.094

> <-TS>
33.382

> <U+W>
-24.556

> <U>
29.944

> <W>
-54.500

> <W(PB)>
-56.695

> <W(SA)>
2.195

> <Valence>
8.447

> <Coulomb>
20.858

> <VdW>
0.639

> <VdW6>
-10.247

> <VdW12>
10.886

> <Bond>
0.318

> <Angle>
2.793

> <Pdih>
5.336

> <Idih>
0.000

> <Tether>
0.000

$$$$
VeraChem MOL file


 26 25  0  0  0  0  0  0  0  0999 V2000     
   21.4426   18.0969   20.3362 C   0  0  0  0  0  0  0  0  0  0  0  0
   20.9372   17.8849   19.3848 H   0  0  0  0  0  0  0  0  0  0  0  0
   22.4843   18.3608   20.1114 H   0  0  0  0  0  0  0  0  0  0  0  0
   21.4500   17.1744   20.9309 H   0  0  0  0  0  0  0  0  0  0  0  0
   20.7408   19.2452   21.0912 C   0  0  0  0  0  0  0  0  0  0  0  0
   20.7834   20.1579   20.4802 H   0  0  0  0  0  0  0  0  0  0  0  0
   21.2958   19.4723   22.0093 H   0  0  0  0  0  0  0  0  0  0  0  0
   19.2614   18.9077   21.3988 C   0  0  0  0  0  0  0  0  0  0  0  0
   18.7220   18.8606   20.4424 H   0  0  0  0  0  0  0  0  0  0  0  0
   19.1635   17.9068   21.8395 H   0  0  0  0  0  0  0  0  0  0  0  0
   18.5715   19.9623   22.3013 C   0  0  0  0  0  0  0  0  0  0  0  0
   17.5363   20.0806   21.9521 H   0  0  0  0  0  0  0  0  0  0  0  0
   19.0411   20.9459   22.1609 H   0  0  0  0  0  0  0  0  0  0  0  0
   18.5118   19.6158   23.8145 C   0  0  0  0  0  0  0  0  0  0  0  0
   17.9348   20.4119   24.3037 H   0  0  0  0  0  0  0  0  0  0  0  0
   17.9336   18.6946   23.9654 H   0  0  0  0  0  0  0  0  0  0  0  0
   19.8814   19.4931   24.5226 C   0  0  1  0  0  0  0  0  0  0  0  0
   20.5389   20.2808   24.1422 H   0  0  0  0  0  0  0  0  0  0  0  0
   19.7213   19.6902   26.0391 C   0  0  0  0  0  0  0  0  0  0  0  0
   19.3034   20.6797   26.2628 H   0  0  0  0  0  0  0  0  0  0  0  0
   20.6922   19.6194   26.5449 H   0  0  0  0  0  0  0  0  0  0  0  0
   19.0550   18.9321   26.4697 H   0  0  0  0  0  0  0  0  0  0  0  0
   20.5572   18.1768   24.2503 N   0  3  0  0  0  0  0  0  0  0  0  0
   20.6769   18.0286   23.2437 H   0  0  0  0  0  0  0  0  0  0  0  0
   21.4828   18.1335   24.6864 H   0  0  0  0  0  0  0  0  0  0  0  0
   20.0083   17.3946   24.6173 H   0  0  0  0  0  0  0  0  0  0  0  0
  1  2  1  0  0  0  0
  1  3  1  0  0  0  0
  1  4  1  0  0  0  0
  1  5  1  0  0  0  0
  5  6  1  0  0  0  0
  5  7  1  0  0  0  0
  5  8  1  0  0  0  0
  8  9  1  0  0  0  0
  8 10  1  0  0  0  0
  8 11  1  0  0  0  0
 11 12  1  0  0  0  0
 11 13  1  0  0  0  0
 11 14  1  0  0  0  0
 14 15  1  0  0  0  0
 14 16  1  0  0  0  0
 14 17  1  0  0  0  0
 17 18  1  0  0  0  0
 17 19  1  0  0  0  0
 19 20  1  0  0  0  0
 19 21  1  0  0  0  0
 19 22  1  0  0  0  0
 17 23  1  0  0  0  0
 23 24  1  0  0  0  0
 23 25  1  0  0  0  0
 23 26  1  0  0  0  0
M  END
> <VM2 Rank>
87

> <Conf_Id>
1068

> <Probability>
0.00

> <Sum Probability>
100.00

> <Delta G>
7.071

> <G>
30.781

> <E>
-2.480

> <-TS>
33.261

> <U+W>
-23.942

> <U>
28.935

> <W>
-52.876

> <W(PB)>
-55.147

> <W(SA)>
2.271

> <Valence>
7.029

> <Coulomb>
21.124

> <VdW>
0.781

> <VdW6>
-9.551

> <VdW12>
10.332

> <Bond>
0.264

> <Angle>
2.108

> <Pdih>
4.657

> <Idih>
0.000

> <Tether>
0.000

$$$$
VeraChem MOL file


 26 25  0  0  0  0  0  0  0  0999 V2000     
   19.4755   17.6704   20.6352 C   0  0  0  0  0  0  0  0  0  0  0  0
   19.8981   16.8929   19.9858 H   0  0  0  0  0  0  0  0  0  0  0  0
   19.4890   17.2898   21.6626 H   0  0  0  0  0  0  0  0  0  0  0  0
   18.4276   17.8159   20.3422 H   0  0  0  0  0  0  0  0  0  0  0  0
   20.2753   18.9863   20.4956 C   0  0  0  0  0  0  0  0  0  0  0  0
   20.2349   19.3004   19.4431 H   0  0  0  0  0  0  0  0  0  0  0  0
   21.3374   18.8097   20.7155 H   0  0  0  0  0  0  0  0  0  0  0  0
   19.7194   20.1332   21.3794 C   0  0  0  0  0  0  0  0  0  0  0  0
   19.6845   21.0448   20.7670 H   0  0  0  0  0  0  0  0  0  0  0  0
   18.6766   19.9318   21.6490 H   0  0  0  0  0  0  0  0  0  0  0  0
   20.5770   20.4538   22.6351 C   0  0  0  0  0  0  0  0  0  0  0  0
   20.1786   21.3489   23.1324 H   0  0  0  0  0  0  0  0  0  0  0  0
   21.5805   20.7369   22.2882 H   0  0  0  0  0  0  0  0  0  0  0  0
   20.7297   19.3106   23.6763 C   0  0  0  0  0  0  0  0  0  0  0  0
   20.7769   18.3349   23.1817 H   0  0  0  0  0  0  0  0  0  0  0  0
   21.7091   19.4375   24.1562 H   0  0  0  0  0  0  0  0  0  0  0  0
   19.6721   19.2931   24.8069 C   0  0  1  0  0  0  0  0  0  0  0  0
   19.7171   20.2539   25.3288 H   0  0  0  0  0  0  0  0  0  0  0  0
   18.2362   19.0971   24.2936 C   0  0  0  0  0  0  0  0  0  0  0  0
   18.1605   18.2185   23.6416 H   0  0  0  0  0  0  0  0  0  0  0  0
   17.8964   19.9784   23.7388 H   0  0  0  0  0  0  0  0  0  0  0  0
   17.5408   18.9608   25.1309 H   0  0  0  0  0  0  0  0  0  0  0  0
   20.0027   18.2434   25.8318 N   0  3  0  0  0  0  0  0  0  0  0  0
   20.9373   18.3825   26.2266 H   0  0  0  0  0  0  0  0  0  0  0  0
   19.3385   18.2593   26.6108 H   0  0  0  0  0  0  0  0  0  0  0  0
   19.9761   17.3038   25.4272 H   0  0  0  0  0  0  0  0  0  0  0  0
  1  2  1  0  0  0  0
  1  3  1  0  0  0  0
  1  4  1  0  0  0  0
  1  5  1  0  0  0  0
  5  6  1  0  0  0  0
  5  7  1  0  0  0  0
  5  8  1  0  0  0  0
  8  9  1  0  0  0  0
  8 10  1  0  0  0  0
  8 11  1  0  0  0  0
 11 12  1  0  0  0  0
 11 13  1  0  0  0  0
 11 14  1  0  0  0  0
 14 15  1  0  0  0  0
 14 16  1  0  0  0  0
 14 17  1  0  0  0  0
 17 18  1  0  0  0  0
 17 19  1  0  0  0  0
 19 20  1  0  0  0  0
 19 21  1  0  0  0  0
 19 22  1  0  0  0  0
 17 23  1  0  0  0  0
 23 24  1  0  0  0  0
 23 25  1  0  0  0  0
 23 26  1  0  0  0  0
M  END
> <VM2 Rank>
88

> <Conf_Id>
837

> <Probability>
0.00

> <Sum Probability>
100.00

> <Delta G>
7.229

> <G>
30.939

> <E>
-2.278

> <-TS>
33.217

> <U+W>
-23.739

> <U>
30.750

> <W>
-54.489

> <W(PB)>
-56.701

> <W(SA)>
2.212

> <Valence>
9.482

> <Coulomb>
20.298

> <VdW>
0.970

> <VdW6>
-9.658

> <VdW12>
10.628

> <Bond>
0.353

> <Angle>
2.952

> <Pdih>
6.177

> <Idih>
0.000

> <Tether>
0.000

$$$$
VeraChem MOL file


 26 25  0  0  0  0  0  0  0  0999 V2000     
   20.9175   19.5755   19.9556 C   0  0  0  0  0  0  0  0  0  0  0  0
   20.2467   20.4358   20.0690 H   0  0  0  0  0  0  0  0  0  0  0  0
   21.9099   19.9620   19.6895 H   0  0  0  0  0  0  0  0  0  0  0  0
   20.5577   18.9711   19.1129 H   0  0  0  0  0  0  0  0  0  0  0  0
   20.9936   18.7343   21.2502 C   0  0  0  0  0  0  0  0  0  0  0  0
   21.3809   19.3619   22.0621 H   0  0  0  0  0  0  0  0  0  0  0  0
   21.7275   17.9300   21.0997 H   0  0  0  0  0  0  0  0  0  0  0  0
   19.6312   18.1026   21.6377 C   0  0  0  0  0  0  0  0  0  0  0  0
   19.2062   17.6310   20.7407 H   0  0  0  0  0  0  0  0  0  0  0  0
   19.7797   17.2788   22.3482 H   0  0  0  0  0  0  0  0  0  0  0  0
   18.5975   19.1104   22.2080 C   0  0  0  0  0  0  0  0  0  0  0  0
   17.6055   18.8223   21.8335 H   0  0  0  0  0  0  0  0  0  0  0  0
   18.7772   20.1169   21.8091 H   0  0  0  0  0  0  0  0  0  0  0  0
   18.5052   19.1745   23.7570 C   0  0  0  0  0  0  0  0  0  0  0  0
   17.6801   19.8570   24.0009 H   0  0  0  0  0  0  0  0  0  0  0  0
   18.2091   18.1959   24.1575 H   0  0  0  0  0  0  0  0  0  0  0  0
   19.7830   19.6689   24.4742 C   0  0  1  0  0  0  0  0  0  0  0  0
   20.2241   20.4738   23.8783 H   0  0  0  0  0  0  0  0  0  0  0  0
   19.4369   20.2313   25.8628 C   0  0  0  0  0  0  0  0  0  0  0  0
   18.7398   21.0745   25.7805 H   0  0  0  0  0  0  0  0  0  0  0  0
   20.3385   20.5963   26.3701 H   0  0  0  0  0  0  0  0  0  0  0  0
   18.9737   19.4651   26.4972 H   0  0  0  0  0  0  0  0  0  0  0  0
   20.8230   18.5906   24.6085 N   0  3  0  0  0  0  0  0  0  0  0  0
   21.6815   18.9488   25.0368 H   0  0  0  0  0  0  0  0  0  0  0  0
   20.4867   17.8212   25.1937 H   0  0  0  0  0  0  0  0  0  0  0  0
   21.0677   18.2010   23.6941 H   0  0  0  0  0  0  0  0  0  0  0  0
  1  2  1  0  0  0  0
  1  3  1  0  0  0  0
  1  4  1  0  0  0  0
  1  5  1  0  0  0  0
  5  6  1  0  0  0  0
  5  7  1  0  0  0  0
  5  8  1  0  0  0  0
  8  9  1  0  0  0  0
  8 10  1  0  0  0  0
  8 11  1  0  0  0  0
 11 12  1  0  0  0  0
 11 13  1  0  0  0  0
 11 14  1  0  0  0  0
 14 15  1  0  0  0  0
 14 16  1  0  0  0  0
 14 17  1  0  0  0  0
 17 18  1  0  0  0  0
 17 19  1  0  0  0  0
 19 20  1  0  0  0  0
 19 21  1  0  0  0  0
 19 22  1  0  0  0  0
 17 23  1  0  0  0  0
 23 24  1  0  0  0  0
 23 25  1  0  0  0  0
 23 26  1  0  0  0  0
M  END
> <VM2 Rank>
89

> <Conf_Id>
1061

> <Probability>
0.00

> <Sum Probability>
100.00

> <Delta G>
7.301

> <G>
31.011

> <E>
-2.223

> <-TS>
33.233

> <U+W>
-23.685

> <U>
30.033

> <W>
-53.718

> <W(PB)>
-55.957

> <W(SA)>
2.239

> <Valence>
7.747

> <Coulomb>
21.341

> <VdW>
0.945

> <VdW6>
-9.749

> <VdW12>
10.694

> <Bond>
0.311

> <Angle>
2.246

> <Pdih>
5.191

> <Idih>
0.000

> <Tether>
0.000

$$$$
VeraChem MOL file


 26 25  0  0  0  0  0  0  0  0999 V2000     
   19.5268   17.8560   20.0289 C   0  0  0  0  0  0  0  0  0  0  0  0
   18.4536   17.8446   20.2599 H   0  0  0  0  0  0  0  0  0  0  0  0
   19.6770   18.4731   19.1334 H   0  0  0  0  0  0  0  0  0  0  0  0
   19.8299   16.8295   19.7852 H   0  0  0  0  0  0  0  0  0  0  0  0
   20.3448   18.3980   21.2198 C   0  0  0  0  0  0  0  0  0  0  0  0
   21.4144   18.3638   20.9692 H   0  0  0  0  0  0  0  0  0  0  0  0
   20.2050   17.7360   22.0822 H   0  0  0  0  0  0  0  0  0  0  0  0
   19.9428   19.8497   21.5737 C   0  0  0  0  0  0  0  0  0  0  0  0
   20.1555   20.4825   20.7008 H   0  0  0  0  0  0  0  0  0  0  0  0
   18.8596   19.9269   21.7352 H   0  0  0  0  0  0  0  0  0  0  0  0
   20.7148   20.4189   22.7917 C   0  0  0  0  0  0  0  0  0  0  0  0
   21.0512   21.4299   22.5227 H   0  0  0  0  0  0  0  0  0  0  0  0
   21.6397   19.8532   22.9652 H   0  0  0  0  0  0  0  0  0  0  0  0
   19.8945   20.5513   24.1080 C   0  0  0  0  0  0  0  0  0  0  0  0
   20.5062   21.1288   24.8135 H   0  0  0  0  0  0  0  0  0  0  0  0
   19.0053   21.1698   23.9284 H   0  0  0  0  0  0  0  0  0  0  0  0
   19.4799   19.2473   24.8364 C   0  0  1  0  0  0  0  0  0  0  0  0
   19.2557   19.5282   25.8701 H   0  0  0  0  0  0  0  0  0  0  0  0
   18.1903   18.6254   24.2710 C   0  0  0  0  0  0  0  0  0  0  0  0
   17.3807   19.3650   24.2459 H   0  0  0  0  0  0  0  0  0  0  0  0
   17.8576   17.7957   24.9066 H   0  0  0  0  0  0  0  0  0  0  0  0
   18.3234   18.2331   23.2592 H   0  0  0  0  0  0  0  0  0  0  0  0
   20.5941   18.2414   24.9246 N   0  3  0  0  0  0  0  0  0  0  0  0
   21.4158   18.6355   25.3916 H   0  0  0  0  0  0  0  0  0  0  0  0
   20.3095   17.4121   25.4537 H   0  0  0  0  0  0  0  0  0  0  0  0
   20.8861   17.9337   23.9945 H   0  0  0  0  0  0  0  0  0  0  0  0
  1  2  1  0  0  0  0
  1  3  1  0  0  0  0
  1  4  1  0  0  0  0
  1  5  1  0  0  0  0
  5  6  1  0  0  0  0
  5  7  1  0  0  0  0
  5  8  1  0  0  0  0
  8  9  1  0  0  0  0
  8 10  1  0  0  0  0
  8 11  1  0  0  0  0
 11 12  1  0  0  0  0
 11 13  1  0  0  0  0
 11 14  1  0  0  0  0
 14 15  1  0  0  0  0
 14 16  1  0  0  0  0
 14 17  1  0  0  0  0
 17 18  1  0  0  0  0
 17 19  1  0  0  0  0
 19 20  1  0  0  0  0
 19 21  1  0  0  0  0
 19 22  1  0  0  0  0
 17 23  1  0  0  0  0
 23 24  1  0  0  0  0
 23 25  1  0  0  0  0
 23 26  1  0  0  0  0
M  END
> <VM2 Rank>
90

> <Conf_Id>
733

> <Probability>
0.00

> <Sum Probability>
100.00

> <Delta G>
7.513

> <G>
31.223

> <E>
-2.139

> <-TS>
33.362

> <U+W>
-23.601

> <U>
30.698

> <W>
-54.299

> <W(PB)>
-56.492

> <W(SA)>
2.193

> <Valence>
8.810

> <Coulomb>
21.308

> <VdW>
0.579

> <VdW6>
-9.947

> <VdW12>
10.526

> <Bond>
0.332

> <Angle>
3.013

> <Pdih>
5.466

> <Idih>
0.000

> <Tether>
0.000

$$$$
VeraChem MOL file


 26 25  0  0  0  0  0  0  0  0999 V2000     
   19.7478   17.4934   21.0078 C   0  0  0  0  0  0  0  0  0  0  0  0
   20.6144   16.8949   21.3170 H   0  0  0  0  0  0  0  0  0  0  0  0
   19.0362   17.5288   21.8382 H   0  0  0  0  0  0  0  0  0  0  0  0
   19.2568   16.9611   20.1828 H   0  0  0  0  0  0  0  0  0  0  0  0
   20.1807   18.9051   20.5493 C   0  0  0  0  0  0  0  0  0  0  0  0
   19.3036   19.4902   20.2395 H   0  0  0  0  0  0  0  0  0  0  0  0
   20.7967   18.7877   19.6466 H   0  0  0  0  0  0  0  0  0  0  0  0
   21.0078   19.6883   21.6019 C   0  0  0  0  0  0  0  0  0  0  0  0
   21.6213   19.0072   22.2013 H   0  0  0  0  0  0  0  0  0  0  0  0
   21.7343   20.3039   21.0533 H   0  0  0  0  0  0  0  0  0  0  0  0
   20.1889   20.6602   22.4954 C   0  0  0  0  0  0  0  0  0  0  0  0
   19.7035   21.3932   21.8362 H   0  0  0  0  0  0  0  0  0  0  0  0
   20.8850   21.2430   23.1144 H   0  0  0  0  0  0  0  0  0  0  0  0
   19.0984   20.0479   23.4155 C   0  0  0  0  0  0  0  0  0  0  0  0
   18.4768   20.8824   23.7662 H   0  0  0  0  0  0  0  0  0  0  0  0
   18.4188   19.4051   22.8457 H   0  0  0  0  0  0  0  0  0  0  0  0
   19.6380   19.3118   24.6653 C   0  0  1  0  0  0  0  0  0  0  0  0
   20.3828   19.9552   25.1437 H   0  0  0  0  0  0  0  0  0  0  0  0
   18.5001   19.0668   25.6699 C   0  0  0  0  0  0  0  0  0  0  0  0
   18.0401   20.0138   25.9786 H   0  0  0  0  0  0  0  0  0  0  0  0
   18.8787   18.5731   26.5734 H   0  0  0  0  0  0  0  0  0  0  0  0
   17.7173   18.4322   25.2358 H   0  0  0  0  0  0  0  0  0  0  0  0
   20.3262   18.0145   24.3488 N   0  3  0  0  0  0  0  0  0  0  0  0
   21.0947   18.1566   23.6899 H   0  0  0  0  0  0  0  0  0  0  0  0
   20.7157   17.5826   25.1917 H   0  0  0  0  0  0  0  0  0  0  0  0
   19.6782   17.3436   23.9292 H   0  0  0  0  0  0  0  0  0  0  0  0
  1  2  1  0  0  0  0
  1  3  1  0  0  0  0
  1  4  1  0  0  0  0
  1  5  1  0  0  0  0
  5  6  1  0  0  0  0
  5  7  1  0  0  0  0
  5  8  1  0  0  0  0
  8  9  1  0  0  0  0
  8 10  1  0  0  0  0
  8 11  1  0  0  0  0
 11 12  1  0  0  0  0
 11 13  1  0  0  0  0
 11 14  1  0  0  0  0
 14 15  1  0  0  0  0
 14 16  1  0  0  0  0
 14 17  1  0  0  0  0
 17 18  1  0  0  0  0
 17 19  1  0  0  0  0
 19 20  1  0  0  0  0
 19 21  1  0  0  0  0
 19 22  1  0  0  0  0
 17 23  1  0  0  0  0
 23 24  1  0  0  0  0
 23 25  1  0  0  0  0
 23 26  1  0  0  0  0
M  END
> <VM2 Rank>
91

> <Conf_Id>
821

> <Probability>
0.00

> <Sum Probability>
100.00

> <Delta G>
7.613

> <G>
31.322

> <E>
-1.642

> <-TS>
32.964

> <U+W>
-23.103

> <U>
30.162

> <W>
-53.266

> <W(PB)>
-55.467

> <W(SA)>
2.201

> <Valence>
7.947

> <Coulomb>
21.782

> <VdW>
0.434

> <VdW6>
-10.033

> <VdW12>
10.467

> <Bond>
0.353

> <Angle>
3.285

> <Pdih>
4.308

> <Idih>
0.000

> <Tether>
0.000

$$$$
VeraChem MOL file


 26 25  0  0  0  0  0  0  0  0999 V2000     
   20.4649   17.6309   20.2298 C   0  0  0  0  0  0  0  0  0  0  0  0
   19.8939   16.7595   19.8837 H   0  0  0  0  0  0  0  0  0  0  0  0
   20.8038   18.1838   19.3440 H   0  0  0  0  0  0  0  0  0  0  0  0
   21.3517   17.2628   20.7618 H   0  0  0  0  0  0  0  0  0  0  0  0
   19.5972   18.5239   21.1412 C   0  0  0  0  0  0  0  0  0  0  0  0
   19.2334   17.9304   21.9874 H   0  0  0  0  0  0  0  0  0  0  0  0
   18.7043   18.8463   20.5872 H   0  0  0  0  0  0  0  0  0  0  0  0
   20.3758   19.7703   21.6268 C   0  0  0  0  0  0  0  0  0  0  0  0
   21.3443   19.4851   22.0582 H   0  0  0  0  0  0  0  0  0  0  0  0
   20.6177   20.3804   20.7453 H   0  0  0  0  0  0  0  0  0  0  0  0
   19.5745   20.6474   22.6247 C   0  0  0  0  0  0  0  0  0  0  0  0
   18.4964   20.4647   22.5248 H   0  0  0  0  0  0  0  0  0  0  0  0
   19.7120   21.6959   22.3263 H   0  0  0  0  0  0  0  0  0  0  0  0
   20.0188   20.5372   24.1123 C   0  0  0  0  0  0  0  0  0  0  0  0
   21.0869   20.7794   24.1889 H   0  0  0  0  0  0  0  0  0  0  0  0
   19.5030   21.3257   24.6761 H   0  0  0  0  0  0  0  0  0  0  0  0
   19.7558   19.1963   24.8418 C   0  0  1  0  0  0  0  0  0  0  0  0
   20.0341   19.3457   25.8897 H   0  0  0  0  0  0  0  0  0  0  0  0
   18.2677   18.8043   24.8228 C   0  0  0  0  0  0  0  0  0  0  0  0
   17.9161   18.5724   23.8117 H   0  0  0  0  0  0  0  0  0  0  0  0
   17.6484   19.6180   25.2203 H   0  0  0  0  0  0  0  0  0  0  0  0
   18.0954   17.9206   25.4491 H   0  0  0  0  0  0  0  0  0  0  0  0
   20.6335   18.0776   24.3545 N   0  3  0  0  0  0  0  0  0  0  0  0
   21.6244   18.2932   24.4967 H   0  0  0  0  0  0  0  0  0  0  0  0
   20.4364   17.2030   24.8494 H   0  0  0  0  0  0  0  0  0  0  0  0
   20.4948   17.9142   23.3540 H   0  0  0  0  0  0  0  0  0  0  0  0
  1  2  1  0  0  0  0
  1  3  1  0  0  0  0
  1  4  1  0  0  0  0
  1  5  1  0  0  0  0
  5  6  1  0  0  0  0
  5  7  1  0  0  0  0
  5  8  1  0  0  0  0
  8  9  1  0  0  0  0
  8 10  1  0  0  0  0
  8 11  1  0  0  0  0
 11 12  1  0  0  0  0
 11 13  1  0  0  0  0
 11 14  1  0  0  0  0
 14 15  1  0  0  0  0
 14 16  1  0  0  0  0
 14 17  1  0  0  0  0
 17 18  1  0  0  0  0
 17 19  1  0  0  0  0
 19 20  1  0  0  0  0
 19 21  1  0  0  0  0
 19 22  1  0  0  0  0
 17 23  1  0  0  0  0
 23 24  1  0  0  0  0
 23 25  1  0  0  0  0
 23 26  1  0  0  0  0
M  END
> <VM2 Rank>
92

> <Conf_Id>
269

> <Probability>
0.00

> <Sum Probability>
100.00

> <Delta G>
7.754

> <G>
31.464

> <E>
-2.237

> <-TS>
33.701

> <U+W>
-23.699

> <U>
29.525

> <W>
-53.224

> <W(PB)>
-55.435

> <W(SA)>
2.211

> <Valence>
7.633

> <Coulomb>
21.336

> <VdW>
0.556

> <VdW6>
-10.324

> <VdW12>
10.881

> <Bond>
0.326

> <Angle>
2.670

> <Pdih>
4.637

> <Idih>
0.000

> <Tether>
0.000

$$$$
VeraChem MOL file


 26 25  0  0  0  0  0  0  0  0999 V2000     
   18.8705   19.3334   20.4892 C   0  0  0  0  0  0  0  0  0  0  0  0
   18.4476   19.2936   19.4770 H   0  0  0  0  0  0  0  0  0  0  0  0
   18.1108   18.9544   21.1838 H   0  0  0  0  0  0  0  0  0  0  0  0
   19.0633   20.3881   20.7151 H   0  0  0  0  0  0  0  0  0  0  0  0
   20.1664   18.4976   20.5609 C   0  0  0  0  0  0  0  0  0  0  0  0
   20.9422   18.9758   19.9468 H   0  0  0  0  0  0  0  0  0  0  0  0
   19.9744   17.5202   20.0966 H   0  0  0  0  0  0  0  0  0  0  0  0
   20.7112   18.2533   21.9921 C   0  0  0  0  0  0  0  0  0  0  0  0
   19.9906   17.6800   22.5821 H   0  0  0  0  0  0  0  0  0  0  0  0
   21.5809   17.5896   21.8893 H   0  0  0  0  0  0  0  0  0  0  0  0
   21.1864   19.5210   22.7530 C   0  0  0  0  0  0  0  0  0  0  0  0
   21.6834   20.1929   22.0400 H   0  0  0  0  0  0  0  0  0  0  0  0
   21.9777   19.2244   23.4544 H   0  0  0  0  0  0  0  0  0  0  0  0
   20.1149   20.3338   23.5419 C   0  0  0  0  0  0  0  0  0  0  0  0
   20.6353   21.1948   23.9813 H   0  0  0  0  0  0  0  0  0  0  0  0
   19.3808   20.7762   22.8613 H   0  0  0  0  0  0  0  0  0  0  0  0
   19.3806   19.6189   24.7075 C   0  0  1  0  0  0  0  0  0  0  0  0
   19.1507   20.3911   25.4482 H   0  0  0  0  0  0  0  0  0  0  0  0
   18.0272   19.0211   24.2803 C   0  0  0  0  0  0  0  0  0  0  0  0
   17.4851   18.6425   25.1554 H   0  0  0  0  0  0  0  0  0  0  0  0
   18.1376   18.1921   23.5757 H   0  0  0  0  0  0  0  0  0  0  0  0
   17.3962   19.7853   23.8100 H   0  0  0  0  0  0  0  0  0  0  0  0
   20.2308   18.6090   25.4291 N   0  3  0  0  0  0  0  0  0  0  0  0
   21.0857   19.0360   25.7965 H   0  0  0  0  0  0  0  0  0  0  0  0
   19.7306   18.1937   26.2202 H   0  0  0  0  0  0  0  0  0  0  0  0
   20.5099   17.8493   24.8036 H   0  0  0  0  0  0  0  0  0  0  0  0
  1  2  1  0  0  0  0
  1  3  1  0  0  0  0
  1  4  1  0  0  0  0
  1  5  1  0  0  0  0
  5  6  1  0  0  0  0
  5  7  1  0  0  0  0
  5  8  1  0  0  0  0
  8  9  1  0  0  0  0
  8 10  1  0  0  0  0
  8 11  1  0  0  0  0
 11 12  1  0  0  0  0
 11 13  1  0  0  0  0
 11 14  1  0  0  0  0
 14 15  1  0  0  0  0
 14 16  1  0  0  0  0
 14 17  1  0  0  0  0
 17 18  1  0  0  0  0
 17 19  1  0  0  0  0
 19 20  1  0  0  0  0
 19 21  1  0  0  0  0
 19 22  1  0  0  0  0
 17 23  1  0  0  0  0
 23 24  1  0  0  0  0
 23 25  1  0  0  0  0
 23 26  1  0  0  0  0
M  END
> <VM2 Rank>
93

> <Conf_Id>
798

> <Probability>
0.00

> <Sum Probability>
100.00

> <Delta G>
8.060

> <G>
31.770

> <E>
-1.719

> <-TS>
33.489

> <U+W>
-23.181

> <U>
31.350

> <W>
-54.530

> <W(PB)>
-56.676

> <W(SA)>
2.145

> <Valence>
9.658

> <Coulomb>
20.873

> <VdW>
0.819

> <VdW6>
-10.581

> <VdW12>
11.400

> <Bond>
0.428

> <Angle>
4.180

> <Pdih>
5.050

> <Idih>
0.000

> <Tether>
0.000

$$$$
VeraChem MOL file


 26 25  0  0  0  0  0  0  0  0999 V2000     
   21.4069   18.2225   21.1006 C   0  0  0  0  0  0  0  0  0  0  0  0
   21.2514   17.2251   21.5308 H   0  0  0  0  0  0  0  0  0  0  0  0
   22.1249   18.1164   20.2771 H   0  0  0  0  0  0  0  0  0  0  0  0
   21.8755   18.8625   21.8540 H   0  0  0  0  0  0  0  0  0  0  0  0
   20.0811   18.8176   20.5757 C   0  0  0  0  0  0  0  0  0  0  0  0
   19.7440   18.1896   19.7390 H   0  0  0  0  0  0  0  0  0  0  0  0
   20.2582   19.8143   20.1484 H   0  0  0  0  0  0  0  0  0  0  0  0
   18.9375   18.8788   21.6223 C   0  0  0  0  0  0  0  0  0  0  0  0
   17.9922   18.8245   21.0645 H   0  0  0  0  0  0  0  0  0  0  0  0
   18.9357   17.9869   22.2584 H   0  0  0  0  0  0  0  0  0  0  0  0
   18.8770   20.1825   22.4643 C   0  0  0  0  0  0  0  0  0  0  0  0
   17.8956   20.2344   22.9538 H   0  0  0  0  0  0  0  0  0  0  0  0
   18.8905   21.0378   21.7751 H   0  0  0  0  0  0  0  0  0  0  0  0
   19.9842   20.4045   23.5349 C   0  0  0  0  0  0  0  0  0  0  0  0
   20.9656   20.4747   23.0539 H   0  0  0  0  0  0  0  0  0  0  0  0
   19.8175   21.3987   23.9699 H   0  0  0  0  0  0  0  0  0  0  0  0
   20.0489   19.4010   24.7160 C   0  0  1  0  0  0  0  0  0  0  0  0
   20.7179   19.8373   25.4643 H   0  0  0  0  0  0  0  0  0  0  0  0
   18.6812   19.1972   25.3907 C   0  0  0  0  0  0  0  0  0  0  0  0
   18.2343   20.1611   25.6640 H   0  0  0  0  0  0  0  0  0  0  0  0
   18.7904   18.6086   26.3098 H   0  0  0  0  0  0  0  0  0  0  0  0
   17.9818   18.6660   24.7339 H   0  0  0  0  0  0  0  0  0  0  0  0
   20.6712   18.0839   24.3494 N   0  3  0  0  0  0  0  0  0  0  0  0
   20.7153   17.4540   25.1557 H   0  0  0  0  0  0  0  0  0  0  0  0
   20.1345   17.6164   23.6159 H   0  0  0  0  0  0  0  0  0  0  0  0
   21.6264   18.2067   24.0026 H   0  0  0  0  0  0  0  0  0  0  0  0
  1  2  1  0  0  0  0
  1  3  1  0  0  0  0
  1  4  1  0  0  0  0
  1  5  1  0  0  0  0
  5  6  1  0  0  0  0
  5  7  1  0  0  0  0
  5  8  1  0  0  0  0
  8  9  1  0  0  0  0
  8 10  1  0  0  0  0
  8 11  1  0  0  0  0
 11 12  1  0  0  0  0
 11 13  1  0  0  0  0
 11 14  1  0  0  0  0
 14 15  1  0  0  0  0
 14 16  1  0  0  0  0
 14 17  1  0  0  0  0
 17 18  1  0  0  0  0
 17 19  1  0  0  0  0
 19 20  1  0  0  0  0
 19 21  1  0  0  0  0
 19 22  1  0  0  0  0
 17 23  1  0  0  0  0
 23 24  1  0  0  0  0
 23 25  1  0  0  0  0
 23 26  1  0  0  0  0
M  END
> <VM2 Rank>
94

> <Conf_Id>
159

> <Probability>
0.00

> <Sum Probability>
100.00

> <Delta G>
8.470

> <G>
32.180

> <E>
-1.491

> <-TS>
33.671

> <U+W>
-22.953

> <U>
30.633

> <W>
-53.586

> <W(PB)>
-55.727

> <W(SA)>
2.141

> <Valence>
8.256

> <Coulomb>
21.993

> <VdW>
0.384

> <VdW6>
-10.990

> <VdW12>
11.375

> <Bond>
0.404

> <Angle>
4.022

> <Pdih>
3.830

> <Idih>
0.000

> <Tether>
0.000

$$$$
VeraChem MOL file


 26 25  0  0  0  0  0  0  0  0999 V2000     
   20.7757   18.0022   20.3234 C   0  0  0  0  0  0  0  0  0  0  0  0
   20.8287   16.9429   20.0406 H   0  0  0  0  0  0  0  0  0  0  0  0
   20.7380   18.5925   19.3986 H   0  0  0  0  0  0  0  0  0  0  0  0
   21.7062   18.2505   20.8477 H   0  0  0  0  0  0  0  0  0  0  0  0
   19.5297   18.2659   21.1998 C   0  0  0  0  0  0  0  0  0  0  0  0
   19.5840   17.6551   22.1077 H   0  0  0  0  0  0  0  0  0  0  0  0
   18.6416   17.9180   20.6538 H   0  0  0  0  0  0  0  0  0  0  0  0
   19.3341   19.7634   21.5511 C   0  0  0  0  0  0  0  0  0  0  0  0
   19.3527   20.3360   20.6134 H   0  0  0  0  0  0  0  0  0  0  0  0
   18.3290   19.9242   21.9627 H   0  0  0  0  0  0  0  0  0  0  0  0
   20.3986   20.3554   22.5138 C   0  0  0  0  0  0  0  0  0  0  0  0
   20.6694   21.3480   22.1280 H   0  0  0  0  0  0  0  0  0  0  0  0
   21.3312   19.7802   22.4790 H   0  0  0  0  0  0  0  0  0  0  0  0
   19.9403   20.5563   23.9879 C   0  0  0  0  0  0  0  0  0  0  0  0
   20.7246   21.1346   24.4937 H   0  0  0  0  0  0  0  0  0  0  0  0
   19.0501   21.1985   24.0148 H   0  0  0  0  0  0  0  0  0  0  0  0
   19.6935   19.2892   24.8455 C   0  0  1  0  0  0  0  0  0  0  0  0
   19.7795   19.5997   25.8914 H   0  0  0  0  0  0  0  0  0  0  0  0
   18.2712   18.7237   24.6816 C   0  0  0  0  0  0  0  0  0  0  0  0
   18.0893   18.3311   23.6777 H   0  0  0  0  0  0  0  0  0  0  0  0
   17.5208   19.4978   24.8840 H   0  0  0  0  0  0  0  0  0  0  0  0
   18.1008   17.9074   25.3941 H   0  0  0  0  0  0  0  0  0  0  0  0
   20.7448   18.2317   24.6510 N   0  3  0  0  0  0  0  0  0  0  0  0
   21.6784   18.5903   24.8712 H   0  0  0  0  0  0  0  0  0  0  0  0
   20.5778   17.4208   25.2536 H   0  0  0  0  0  0  0  0  0  0  0  0
   20.7610   17.9054   23.6818 H   0  0  0  0  0  0  0  0  0  0  0  0
  1  2  1  0  0  0  0
  1  3  1  0  0  0  0
  1  4  1  0  0  0  0
  1  5  1  0  0  0  0
  5  6  1  0  0  0  0
  5  7  1  0  0  0  0
  5  8  1  0  0  0  0
  8  9  1  0  0  0  0
  8 10  1  0  0  0  0
  8 11  1  0  0  0  0
 11 12  1  0  0  0  0
 11 13  1  0  0  0  0
 11 14  1  0  0  0  0
 14 15  1  0  0  0  0
 14 16  1  0  0  0  0
 14 17  1  0  0  0  0
 17 18  1  0  0  0  0
 17 19  1  0  0  0  0
 19 20  1  0  0  0  0
 19 21  1  0  0  0  0
 19 22  1  0  0  0  0
 17 23  1  0  0  0  0
 23 24  1  0  0  0  0
 23 25  1  0  0  0  0
 23 26  1  0  0  0  0
M  END
> <VM2 Rank>
95

> <Conf_Id>
447

> <Probability>
0.00

> <Sum Probability>
100.00

> <Delta G>
8.656

> <G>
32.366

> <E>
-0.990

> <-TS>
33.356

> <U+W>
-22.451

> <U>
31.359

> <W>
-53.811

> <W(PB)>
-56.006

> <W(SA)>
2.195

> <Valence>
9.442

> <Coulomb>
21.140

> <VdW>
0.777

> <VdW6>
-10.522

> <VdW12>
11.299

> <Bond>
0.381

> <Angle>
3.343

> <Pdih>
5.718

> <Idih>
0.000

> <Tether>
0.000

$$$$
