@<TRIPOS>MOLECULE
guest-s13_vm2.mol2 : vm2 ligand conformer 1
          26          25           1
SMALL
USER_CHARGES
 
@<TRIPOS>ATOM
       1    C1      20.241465   18.656353   18.805959 C.3        1 MOL1        -0.2398
       2    H1      19.604454   19.497126   18.501723 H          1 MOL1         0.0972
       3    H2      21.055778   18.568877   18.075008 H          1 MOL1         0.0972
       4    H3      19.642620   17.737652   18.754832 H          1 MOL1         0.0972
       5    C2      20.805066   18.872904   20.226378 C.3        1 MOL1        -0.1383
       6    H4      21.426313   19.779468   20.237693 H          1 MOL1         0.0961
       7    H5      21.464277   18.033533   20.488706 H          1 MOL1         0.0961
       8    C3      19.678447   18.999415   21.275697 C.3        1 MOL1        -0.1407
       9    H6      19.020680   19.837541   21.006715 H          1 MOL1         0.0961
      10    H7      19.059283   18.091742   21.259405 H          1 MOL1         0.0961
      11    C4      20.238886   19.217241   22.699437 C.3        1 MOL1        -0.1407
      12    H8      20.854950   20.127153   22.715054 H          1 MOL1         0.0961
      13    H9      20.899896   18.379208   22.957578 H          1 MOL1         0.0961
      14    C5      19.107560   19.342223   23.748812 C.3        1 MOL1        -0.1472
      15    H10     18.427909   20.148985   23.443328 H          1 MOL1         0.0961
      16    H11     18.511841   18.419798   23.764621 H          1 MOL1         0.0961
      17    C6      19.633128   19.645595   25.168750 C.3        1 MOL1         0.1190
      18    H12     20.241827   20.553908   25.122170 H          1 MOL1         0.0923
      19    C7      18.460538   19.899608   26.129594 C.3        1 MOL1        -0.2463
      20    H13     17.844605   20.737645   25.780234 H          1 MOL1         0.0972
      21    H14     18.827578   20.152140   27.132034 H          1 MOL1         0.0972
      22    H15     17.817308   19.014699   26.213871 H          1 MOL1         0.0972
      23    N1      20.522910   18.554661   25.699371 N.4        1 MOL1        -0.5974
      24    H16     21.333737   18.404997   25.093112 H          1 MOL1         0.3625
      25    H17     20.876959   18.781569   26.632959 H          1 MOL1         0.3625
      26    H18     20.021779   17.665156   25.769729 H          1 MOL1         0.3625
@<TRIPOS>BOND
    1     1     2    1
    2     1     3    1
    3     1     4    1
    4     1     5    1
    5     5     6    1
    6     5     7    1
    7     5     8    1
    8     8     9    1
    9     8    10    1
   10     8    11    1
   11    11    12    1
   12    11    13    1
   13    11    14    1
   14    14    15    1
   15    14    16    1
   16    14    17    1
   17    17    18    1
   18    17    19    1
   19    19    20    1
   20    19    21    1
   21    19    22    1
   22    17    23    1
   23    23    24    1
   24    23    25    1
   25    23    26    1
@<TRIPOS>SUBSTRUCTURE
       1 MOL1            1 RESIDUE      1      MOL     
@<SCITEGIC>MOL_PROPERTY
VM2 Rank
SciTegic.value.IntegerValue
1

@<SCITEGIC>MOL_PROPERTY
Conf_Id
SciTegic.value.IntegerValue
300

@<SCITEGIC>MOL_PROPERTY
Probability
SciTegic.value.DoubleValue
17.04

@<SCITEGIC>MOL_PROPERTY
Sum Probability
SciTegic.value.DoubleValue
17.04

@<SCITEGIC>MOL_PROPERTY
Delta G
SciTegic.value.DoubleValue
0.000

@<SCITEGIC>MOL_PROPERTY
G
SciTegic.value.DoubleValue
23.710

@<SCITEGIC>MOL_PROPERTY
E
SciTegic.value.DoubleValue
-8.843

@<SCITEGIC>MOL_PROPERTY
-TS
SciTegic.value.DoubleValue
32.552

@<SCITEGIC>MOL_PROPERTY
U+W
SciTegic.value.DoubleValue
-30.304

@<SCITEGIC>MOL_PROPERTY
U
SciTegic.value.DoubleValue
23.517

@<SCITEGIC>MOL_PROPERTY
W
SciTegic.value.DoubleValue
-53.818

@<SCITEGIC>MOL_PROPERTY
W(PB)
SciTegic.value.DoubleValue
-56.163

@<SCITEGIC>MOL_PROPERTY
W(SA)
SciTegic.value.DoubleValue
2.346

@<SCITEGIC>MOL_PROPERTY
Valence
SciTegic.value.DoubleValue
2.737

@<SCITEGIC>MOL_PROPERTY
Coulomb
SciTegic.value.DoubleValue
19.862

@<SCITEGIC>MOL_PROPERTY
VdW
SciTegic.value.DoubleValue
0.919

@<SCITEGIC>MOL_PROPERTY
VdW6
SciTegic.value.DoubleValue
-6.793

@<SCITEGIC>MOL_PROPERTY
VdW12
SciTegic.value.DoubleValue
7.712

@<SCITEGIC>MOL_PROPERTY
Bond
SciTegic.value.DoubleValue
0.171

@<SCITEGIC>MOL_PROPERTY
Angle
SciTegic.value.DoubleValue
0.873

@<SCITEGIC>MOL_PROPERTY
Pdih
SciTegic.value.DoubleValue
1.693

@<SCITEGIC>MOL_PROPERTY
Idih
SciTegic.value.DoubleValue
0.000

@<SCITEGIC>MOL_PROPERTY
Tether
SciTegic.value.DoubleValue
0.000

@<TRIPOS>MOLECULE
guest-s13_vm2.mol2 : vm2 ligand conformer 2
          26          25           1
SMALL
USER_CHARGES
 
@<TRIPOS>ATOM
       1    C1      20.264827   18.643737   18.802552 C.3        1 MOL1        -0.2398
       2    H1      20.317522   19.278311   17.908355 H          1 MOL1         0.0972
       3    H2      21.173519   18.028444   18.833112 H          1 MOL1         0.0972
       4    H3      19.402104   17.974162   18.690209 H          1 MOL1         0.0972
       5    C2      20.135650   19.506161   20.075996 C.3        1 MOL1        -0.1383
       6    H4      19.237035   20.134477   20.000921 H          1 MOL1         0.0961
       7    H5      20.994775   20.188335   20.142910 H          1 MOL1         0.0961
       8    C3      20.059518   18.636602   21.350542 C.3        1 MOL1        -0.1407
       9    H6      19.200468   17.955205   21.278210 H          1 MOL1         0.0961
      10    H7      20.958514   18.008403   21.418602 H          1 MOL1         0.0961
      11    C4      19.930447   19.496841   22.628151 C.3        1 MOL1        -0.1407
      12    H8      19.034550   20.126026   22.545537 H          1 MOL1         0.0961
      13    H9      20.792271   20.174559   22.702240 H          1 MOL1         0.0961
      14    C5      19.849889   18.622206   23.903585 C.3        1 MOL1        -0.1472
      15    H10     18.953150   17.989639   23.862958 H          1 MOL1         0.0961
      16    H11     20.710889   17.940825   23.914783 H          1 MOL1         0.0961
      17    C6      19.853468   19.435477   25.218312 C.3        1 MOL1         0.1190
      18    H12     20.732576   20.087290   25.216086 H          1 MOL1         0.0923
      19    C7      18.596832   20.312948   25.361751 C.3        1 MOL1        -0.2463
      20    H13     17.682534   19.709154   25.305393 H          1 MOL1         0.0972
      21    H14     18.552731   21.078130   24.578246 H          1 MOL1         0.0972
      22    H15     18.599452   20.836640   26.325633 H          1 MOL1         0.0972
      23    N1      19.997369   18.534029   26.413111 N.4        1 MOL1        -0.5974
      24    H16     19.207725   17.887680   26.491919 H          1 MOL1         0.3625
      25    H17     20.851349   17.971334   26.360768 H          1 MOL1         0.3625
      26    H18     20.040303   19.070982   27.283921 H          1 MOL1         0.3625
@<TRIPOS>BOND
    1     1     2    1
    2     1     3    1
    3     1     4    1
    4     1     5    1
    5     5     6    1
    6     5     7    1
    7     5     8    1
    8     8     9    1
    9     8    10    1
   10     8    11    1
   11    11    12    1
   12    11    13    1
   13    11    14    1
   14    14    15    1
   15    14    16    1
   16    14    17    1
   17    17    18    1
   18    17    19    1
   19    19    20    1
   20    19    21    1
   21    19    22    1
   22    17    23    1
   23    23    24    1
   24    23    25    1
   25    23    26    1
@<TRIPOS>SUBSTRUCTURE
       1 MOL1            1 RESIDUE      1      MOL     
@<SCITEGIC>MOL_PROPERTY
VM2 Rank
SciTegic.value.IntegerValue
2

@<SCITEGIC>MOL_PROPERTY
Conf_Id
SciTegic.value.IntegerValue
54

@<SCITEGIC>MOL_PROPERTY
Probability
SciTegic.value.DoubleValue
7.70

@<SCITEGIC>MOL_PROPERTY
Sum Probability
SciTegic.value.DoubleValue
24.74

@<SCITEGIC>MOL_PROPERTY
Delta G
SciTegic.value.DoubleValue
0.474

@<SCITEGIC>MOL_PROPERTY
G
SciTegic.value.DoubleValue
24.184

@<SCITEGIC>MOL_PROPERTY
E
SciTegic.value.DoubleValue
-8.383

@<SCITEGIC>MOL_PROPERTY
-TS
SciTegic.value.DoubleValue
32.567

@<SCITEGIC>MOL_PROPERTY
U+W
SciTegic.value.DoubleValue
-29.845

@<SCITEGIC>MOL_PROPERTY
U
SciTegic.value.DoubleValue
23.817

@<SCITEGIC>MOL_PROPERTY
W
SciTegic.value.DoubleValue
-53.663

@<SCITEGIC>MOL_PROPERTY
W(PB)
SciTegic.value.DoubleValue
-56.021

@<SCITEGIC>MOL_PROPERTY
W(SA)
SciTegic.value.DoubleValue
2.358

@<SCITEGIC>MOL_PROPERTY
Valence
SciTegic.value.DoubleValue
3.277

@<SCITEGIC>MOL_PROPERTY
Coulomb
SciTegic.value.DoubleValue
19.492

@<SCITEGIC>MOL_PROPERTY
VdW
SciTegic.value.DoubleValue
1.049

@<SCITEGIC>MOL_PROPERTY
VdW6
SciTegic.value.DoubleValue
-6.949

@<SCITEGIC>MOL_PROPERTY
VdW12
SciTegic.value.DoubleValue
7.998

@<SCITEGIC>MOL_PROPERTY
Bond
SciTegic.value.DoubleValue
0.183

@<SCITEGIC>MOL_PROPERTY
Angle
SciTegic.value.DoubleValue
1.152

@<SCITEGIC>MOL_PROPERTY
Pdih
SciTegic.value.DoubleValue
1.942

@<SCITEGIC>MOL_PROPERTY
Idih
SciTegic.value.DoubleValue
0.000

@<SCITEGIC>MOL_PROPERTY
Tether
SciTegic.value.DoubleValue
0.000

@<TRIPOS>MOLECULE
guest-s13_vm2.mol2 : vm2 ligand conformer 3
          26          25           1
SMALL
USER_CHARGES
 
@<TRIPOS>ATOM
       1    C1      20.361293   18.766426   18.898871 C.3        1 MOL1        -0.2398
       2    H1      20.329028   17.928905   18.189959 H          1 MOL1         0.0972
       3    H2      19.620792   19.509863   18.576074 H          1 MOL1         0.0972
       4    H3      21.356742   19.224783   18.833862 H          1 MOL1         0.0972
       5    C2      20.068070   18.277921   20.333267 C.3        1 MOL1        -0.1383
       6    H4      20.803939   17.511683   20.614843 H          1 MOL1         0.0961
       7    H5      19.081352   17.794557   20.359028 H          1 MOL1         0.0961
       8    C3      20.107383   19.438502   21.352058 C.3        1 MOL1        -0.1407
       9    H6      21.094709   19.919776   21.320244 H          1 MOL1         0.0961
      10    H7      19.371978   20.202741   21.064697 H          1 MOL1         0.0961
      11    C4      19.814092   18.953491   22.789891 C.3        1 MOL1        -0.1407
      12    H8      20.551202   18.189202   23.069384 H          1 MOL1         0.0961
      13    H9      18.828360   18.470397   22.809673 H          1 MOL1         0.0961
      14    C5      19.852193   20.123871   23.806958 C.3        1 MOL1        -0.1472
      15    H10     20.825424   20.627716   23.740471 H          1 MOL1         0.0961
      16    H11     19.103425   20.875401   23.523527 H          1 MOL1         0.0961
      17    C6      19.613325   19.715672   25.280021 C.3        1 MOL1         0.1190
      18    H12     19.696631   20.623223   25.886037 H          1 MOL1         0.0923
      19    C7      18.204012   19.138263   25.499450 C.3        1 MOL1        -0.2463
      20    H13     17.437572   19.825546   25.120284 H          1 MOL1         0.0972
      21    H14     18.014288   18.986464   26.569095 H          1 MOL1         0.0972
      22    H15     18.078485   18.171800   24.997103 H          1 MOL1         0.0972
      23    N1      20.667632   18.773854   25.793485 N.4        1 MOL1        -0.5974
      24    H16     21.606543   19.169532   25.691729 H          1 MOL1         0.3625
      25    H17     20.530448   18.564073   26.786254 H          1 MOL1         0.3625
      26    H18     20.650907   17.885254   25.287163 H          1 MOL1         0.3625
@<TRIPOS>BOND
    1     1     2    1
    2     1     3    1
    3     1     4    1
    4     1     5    1
    5     5     6    1
    6     5     7    1
    7     5     8    1
    8     8     9    1
    9     8    10    1
   10     8    11    1
   11    11    12    1
   12    11    13    1
   13    11    14    1
   14    14    15    1
   15    14    16    1
   16    14    17    1
   17    17    18    1
   18    17    19    1
   19    19    20    1
   20    19    21    1
   21    19    22    1
   22    17    23    1
   23    23    24    1
   24    23    25    1
   25    23    26    1
@<TRIPOS>SUBSTRUCTURE
       1 MOL1            1 RESIDUE      1      MOL     
@<SCITEGIC>MOL_PROPERTY
VM2 Rank
SciTegic.value.IntegerValue
3

@<SCITEGIC>MOL_PROPERTY
Conf_Id
SciTegic.value.IntegerValue
394

@<SCITEGIC>MOL_PROPERTY
Probability
SciTegic.value.DoubleValue
7.20

@<SCITEGIC>MOL_PROPERTY
Sum Probability
SciTegic.value.DoubleValue
31.94

@<SCITEGIC>MOL_PROPERTY
Delta G
SciTegic.value.DoubleValue
0.513

@<SCITEGIC>MOL_PROPERTY
G
SciTegic.value.DoubleValue
24.223

@<SCITEGIC>MOL_PROPERTY
E
SciTegic.value.DoubleValue
-8.474

@<SCITEGIC>MOL_PROPERTY
-TS
SciTegic.value.DoubleValue
32.697

@<SCITEGIC>MOL_PROPERTY
U+W
SciTegic.value.DoubleValue
-29.936

@<SCITEGIC>MOL_PROPERTY
U
SciTegic.value.DoubleValue
24.060

@<SCITEGIC>MOL_PROPERTY
W
SciTegic.value.DoubleValue
-53.996

@<SCITEGIC>MOL_PROPERTY
W(PB)
SciTegic.value.DoubleValue
-56.328

@<SCITEGIC>MOL_PROPERTY
W(SA)
SciTegic.value.DoubleValue
2.332

@<SCITEGIC>MOL_PROPERTY
Valence
SciTegic.value.DoubleValue
3.249

@<SCITEGIC>MOL_PROPERTY
Coulomb
SciTegic.value.DoubleValue
19.781

@<SCITEGIC>MOL_PROPERTY
VdW
SciTegic.value.DoubleValue
1.030

@<SCITEGIC>MOL_PROPERTY
VdW6
SciTegic.value.DoubleValue
-7.421

@<SCITEGIC>MOL_PROPERTY
VdW12
SciTegic.value.DoubleValue
8.451

@<SCITEGIC>MOL_PROPERTY
Bond
SciTegic.value.DoubleValue
0.207

@<SCITEGIC>MOL_PROPERTY
Angle
SciTegic.value.DoubleValue
1.205

@<SCITEGIC>MOL_PROPERTY
Pdih
SciTegic.value.DoubleValue
1.837

@<SCITEGIC>MOL_PROPERTY
Idih
SciTegic.value.DoubleValue
0.000

@<SCITEGIC>MOL_PROPERTY
Tether
SciTegic.value.DoubleValue
0.000

@<TRIPOS>MOLECULE
guest-s13_vm2.mol2 : vm2 ligand conformer 4
          26          25           1
SMALL
USER_CHARGES
 
@<TRIPOS>ATOM
       1    C1      21.047720   19.537622   19.590769 C.3        1 MOL1        -0.2398
       2    H1      21.740397   19.891696   20.364244 H          1 MOL1         0.0972
       3    H2      21.643593   19.291669   18.702300 H          1 MOL1         0.0972
       4    H3      20.375511   20.364027   19.325786 H          1 MOL1         0.0972
       5    C2      20.249476   18.302178   20.065379 C.3        1 MOL1        -0.1383
       6    H4      20.944684   17.500991   20.352669 H          1 MOL1         0.0961
       7    H5      19.664334   17.912857   19.220488 H          1 MOL1         0.0961
       8    C3      19.286259   18.605411   21.238386 C.3        1 MOL1        -0.1407
       9    H6      18.578565   19.390269   20.937625 H          1 MOL1         0.0961
      10    H7      18.685409   17.707157   21.437151 H          1 MOL1         0.0961
      11    C4      20.011821   19.025984   22.539041 C.3        1 MOL1        -0.1407
      12    H8      20.556595   19.965171   22.375209 H          1 MOL1         0.0961
      13    H9      20.757557   18.262647   22.797484 H          1 MOL1         0.0961
      14    C5      19.019080   19.215296   23.711810 C.3        1 MOL1        -0.1472
      15    H10     18.249210   19.938475   23.411095 H          1 MOL1         0.0961
      16    H11     18.498765   18.269828   23.915097 H          1 MOL1         0.0961
      17    C6      19.699990   19.720930   25.002198 C.3        1 MOL1         0.1190
      18    H12     20.229911   20.649617   24.768884 H          1 MOL1         0.0923
      19    C7      18.645884   20.024588   26.078920 C.3        1 MOL1        -0.2463
      20    H13     19.119872   20.419348   26.986042 H          1 MOL1         0.0972
      21    H14     18.085029   19.121751   26.351385 H          1 MOL1         0.0972
      22    H15     17.930674   20.776739   25.723289 H          1 MOL1         0.0972
      23    N1      20.727770   18.755992   25.527498 N.4        1 MOL1        -0.5974
      24    H16     20.305746   17.855125   25.767563 H          1 MOL1         0.3625
      25    H17     21.461895   18.578637   24.836842 H          1 MOL1         0.3625
      26    H18     21.182250   19.116103   26.371406 H          1 MOL1         0.3625
@<TRIPOS>BOND
    1     1     2    1
    2     1     3    1
    3     1     4    1
    4     1     5    1
    5     5     6    1
    6     5     7    1
    7     5     8    1
    8     8     9    1
    9     8    10    1
   10     8    11    1
   11    11    12    1
   12    11    13    1
   13    11    14    1
   14    14    15    1
   15    14    16    1
   16    14    17    1
   17    17    18    1
   18    17    19    1
   19    19    20    1
   20    19    21    1
   21    19    22    1
   22    17    23    1
   23    23    24    1
   24    23    25    1
   25    23    26    1
@<TRIPOS>SUBSTRUCTURE
       1 MOL1            1 RESIDUE      1      MOL     
@<SCITEGIC>MOL_PROPERTY
VM2 Rank
SciTegic.value.IntegerValue
4

@<SCITEGIC>MOL_PROPERTY
Conf_Id
SciTegic.value.IntegerValue
1098

@<SCITEGIC>MOL_PROPERTY
Probability
SciTegic.value.DoubleValue
6.29

@<SCITEGIC>MOL_PROPERTY
Sum Probability
SciTegic.value.DoubleValue
38.23

@<SCITEGIC>MOL_PROPERTY
Delta G
SciTegic.value.DoubleValue
0.594

@<SCITEGIC>MOL_PROPERTY
G
SciTegic.value.DoubleValue
24.304

@<SCITEGIC>MOL_PROPERTY
E
SciTegic.value.DoubleValue
-8.361

@<SCITEGIC>MOL_PROPERTY
-TS
SciTegic.value.DoubleValue
32.665

@<SCITEGIC>MOL_PROPERTY
U+W
SciTegic.value.DoubleValue
-29.822

@<SCITEGIC>MOL_PROPERTY
U
SciTegic.value.DoubleValue
24.148

@<SCITEGIC>MOL_PROPERTY
W
SciTegic.value.DoubleValue
-53.971

@<SCITEGIC>MOL_PROPERTY
W(PB)
SciTegic.value.DoubleValue
-56.282

@<SCITEGIC>MOL_PROPERTY
W(SA)
SciTegic.value.DoubleValue
2.311

@<SCITEGIC>MOL_PROPERTY
Valence
SciTegic.value.DoubleValue
3.242

@<SCITEGIC>MOL_PROPERTY
Coulomb
SciTegic.value.DoubleValue
19.863

@<SCITEGIC>MOL_PROPERTY
VdW
SciTegic.value.DoubleValue
1.043

@<SCITEGIC>MOL_PROPERTY
VdW6
SciTegic.value.DoubleValue
-7.422

@<SCITEGIC>MOL_PROPERTY
VdW12
SciTegic.value.DoubleValue
8.465

@<SCITEGIC>MOL_PROPERTY
Bond
SciTegic.value.DoubleValue
0.206

@<SCITEGIC>MOL_PROPERTY
Angle
SciTegic.value.DoubleValue
1.112

@<SCITEGIC>MOL_PROPERTY
Pdih
SciTegic.value.DoubleValue
1.924

@<SCITEGIC>MOL_PROPERTY
Idih
SciTegic.value.DoubleValue
0.000

@<SCITEGIC>MOL_PROPERTY
Tether
SciTegic.value.DoubleValue
0.000

@<TRIPOS>MOLECULE
guest-s13_vm2.mol2 : vm2 ligand conformer 5
          26          25           1
SMALL
USER_CHARGES
 
@<TRIPOS>ATOM
       1    C1      21.069665   18.017582   19.828509 C.3        1 MOL1        -0.2398
       2    H1      21.771386   17.911853   20.665019 H          1 MOL1         0.0972
       3    H2      20.411478   17.139118   19.817558 H          1 MOL1         0.0972
       4    H3      21.658003   18.007586   18.901850 H          1 MOL1         0.0972
       5    C2      20.251073   19.324289   19.934898 C.3        1 MOL1        -0.1383
       6    H4      19.658308   19.445966   19.017493 H          1 MOL1         0.0961
       7    H5      20.932829   20.185239   19.976564 H          1 MOL1         0.0961
       8    C3      19.294356   19.354546   21.151274 C.3        1 MOL1        -0.1407
       9    H6      18.676465   20.260739   21.085288 H          1 MOL1         0.0961
      10    H7      18.601673   18.503515   21.094264 H          1 MOL1         0.0961
      11    C4      20.028187   19.340078   22.513802 C.3        1 MOL1        -0.1407
      12    H8      20.754329   20.164121   22.547197 H          1 MOL1         0.0961
      13    H9      20.596503   18.407024   22.613637 H          1 MOL1         0.0961
      14    C5      19.039522   19.475492   23.697543 C.3        1 MOL1        -0.1472
      15    H10     18.443258   20.387376   23.559747 H          1 MOL1         0.0961
      16    H11     18.332986   18.634823   23.689159 H          1 MOL1         0.0961
      17    C6      19.746275   19.546719   25.068700 C.3        1 MOL1         0.1190
      18    H12     20.461553   20.374628   25.043041 H          1 MOL1         0.0923
      19    C7      18.724537   19.826541   26.182467 C.3        1 MOL1        -0.2463
      20    H13     18.191921   20.767376   25.995709 H          1 MOL1         0.0972
      21    H14     19.224501   19.915036   27.154875 H          1 MOL1         0.0972
      22    H15     17.982127   19.021589   26.251699 H          1 MOL1         0.0972
      23    N1      20.534384   18.302752   25.376808 N.4        1 MOL1        -0.5974
      24    H16     21.010365   18.375777   26.280435 H          1 MOL1         0.3625
      25    H17     19.930005   17.477771   25.414796 H          1 MOL1         0.3625
      26    H18     21.250827   18.128299   24.667145 H          1 MOL1         0.3625
@<TRIPOS>BOND
    1     1     2    1
    2     1     3    1
    3     1     4    1
    4     1     5    1
    5     5     6    1
    6     5     7    1
    7     5     8    1
    8     8     9    1
    9     8    10    1
   10     8    11    1
   11    11    12    1
   12    11    13    1
   13    11    14    1
   14    14    15    1
   15    14    16    1
   16    14    17    1
   17    17    18    1
   18    17    19    1
   19    19    20    1
   20    19    21    1
   21    19    22    1
   22    17    23    1
   23    23    24    1
   24    23    25    1
   25    23    26    1
@<TRIPOS>SUBSTRUCTURE
       1 MOL1            1 RESIDUE      1      MOL     
@<SCITEGIC>MOL_PROPERTY
VM2 Rank
SciTegic.value.IntegerValue
5

@<SCITEGIC>MOL_PROPERTY
Conf_Id
SciTegic.value.IntegerValue
512

@<SCITEGIC>MOL_PROPERTY
Probability
SciTegic.value.DoubleValue
6.04

@<SCITEGIC>MOL_PROPERTY
Sum Probability
SciTegic.value.DoubleValue
44.28

@<SCITEGIC>MOL_PROPERTY
Delta G
SciTegic.value.DoubleValue
0.618

@<SCITEGIC>MOL_PROPERTY
G
SciTegic.value.DoubleValue
24.328

@<SCITEGIC>MOL_PROPERTY
E
SciTegic.value.DoubleValue
-8.331

@<SCITEGIC>MOL_PROPERTY
-TS
SciTegic.value.DoubleValue
32.658

@<SCITEGIC>MOL_PROPERTY
U+W
SciTegic.value.DoubleValue
-29.792

@<SCITEGIC>MOL_PROPERTY
U
SciTegic.value.DoubleValue
24.259

@<SCITEGIC>MOL_PROPERTY
W
SciTegic.value.DoubleValue
-54.052

@<SCITEGIC>MOL_PROPERTY
W(PB)
SciTegic.value.DoubleValue
-56.355

@<SCITEGIC>MOL_PROPERTY
W(SA)
SciTegic.value.DoubleValue
2.304

@<SCITEGIC>MOL_PROPERTY
Valence
SciTegic.value.DoubleValue
3.240

@<SCITEGIC>MOL_PROPERTY
Coulomb
SciTegic.value.DoubleValue
19.971

@<SCITEGIC>MOL_PROPERTY
VdW
SciTegic.value.DoubleValue
1.049

@<SCITEGIC>MOL_PROPERTY
VdW6
SciTegic.value.DoubleValue
-7.432

@<SCITEGIC>MOL_PROPERTY
VdW12
SciTegic.value.DoubleValue
8.481

@<SCITEGIC>MOL_PROPERTY
Bond
SciTegic.value.DoubleValue
0.208

@<SCITEGIC>MOL_PROPERTY
Angle
SciTegic.value.DoubleValue
1.110

@<SCITEGIC>MOL_PROPERTY
Pdih
SciTegic.value.DoubleValue
1.922

@<SCITEGIC>MOL_PROPERTY
Idih
SciTegic.value.DoubleValue
0.000

@<SCITEGIC>MOL_PROPERTY
Tether
SciTegic.value.DoubleValue
0.000

@<TRIPOS>MOLECULE
guest-s13_vm2.mol2 : vm2 ligand conformer 6
          26          25           1
SMALL
USER_CHARGES
 
@<TRIPOS>ATOM
       1    C1      19.926801   18.437431   19.084923 C.3        1 MOL1        -0.2398
       2    H1      20.909586   18.660419   18.649456 H          1 MOL1         0.0972
       3    H2      19.585324   17.479247   18.672233 H          1 MOL1         0.0972
       4    H3      19.223720   19.214796   18.758397 H          1 MOL1         0.0972
       5    C2      20.003781   18.371023   20.625021 C.3        1 MOL1        -0.1383
       6    H4      20.690925   17.566005   20.920795 H          1 MOL1         0.0961
       7    H5      19.013899   18.106408   21.019842 H          1 MOL1         0.0961
       8    C3      20.479363   19.712884   21.230323 C.3        1 MOL1        -0.1407
       9    H6      21.433484   19.996400   20.764850 H          1 MOL1         0.0961
      10    H7      19.764747   20.507808   20.975957 H          1 MOL1         0.0961
      11    C4      20.677445   19.663511   22.765244 C.3        1 MOL1        -0.1407
      12    H8      21.115546   20.617544   23.090076 H          1 MOL1         0.0961
      13    H9      21.412877   18.885141   23.008699 H          1 MOL1         0.0961
      14    C5      19.362226   19.420253   23.548875 C.3        1 MOL1        -0.1472
      15    H10     18.607797   20.142682   23.209982 H          1 MOL1         0.0961
      16    H11     18.966355   18.421832   23.324060 H          1 MOL1         0.0961
      17    C6      19.539704   19.565210   25.075774 C.3        1 MOL1         0.1190
      18    H12     19.949572   20.559109   25.280405 H          1 MOL1         0.0923
      19    C7      18.181383   19.448116   25.785654 C.3        1 MOL1        -0.2463
      20    H13     17.484746   20.214335   25.423253 H          1 MOL1         0.0972
      21    H14     18.295465   19.587611   26.867734 H          1 MOL1         0.0972
      22    H15     17.726846   18.464367   25.613803 H          1 MOL1         0.0972
      23    N1      20.517297   18.569571   25.638184 N.4        1 MOL1        -0.5974
      24    H16     20.201942   17.608366   25.483706 H          1 MOL1         0.3625
      25    H17     21.439452   18.665306   25.204710 H          1 MOL1         0.3625
      26    H18     20.639185   18.693814   26.647200 H          1 MOL1         0.3625
@<TRIPOS>BOND
    1     1     2    1
    2     1     3    1
    3     1     4    1
    4     1     5    1
    5     5     6    1
    6     5     7    1
    7     5     8    1
    8     8     9    1
    9     8    10    1
   10     8    11    1
   11    11    12    1
   12    11    13    1
   13    11    14    1
   14    14    15    1
   15    14    16    1
   16    14    17    1
   17    17    18    1
   18    17    19    1
   19    19    20    1
   20    19    21    1
   21    19    22    1
   22    17    23    1
   23    23    24    1
   24    23    25    1
   25    23    26    1
@<TRIPOS>SUBSTRUCTURE
       1 MOL1            1 RESIDUE      1      MOL     
@<SCITEGIC>MOL_PROPERTY
VM2 Rank
SciTegic.value.IntegerValue
6

@<SCITEGIC>MOL_PROPERTY
Conf_Id
SciTegic.value.IntegerValue
976

@<SCITEGIC>MOL_PROPERTY
Probability
SciTegic.value.DoubleValue
5.30

@<SCITEGIC>MOL_PROPERTY
Sum Probability
SciTegic.value.DoubleValue
49.57

@<SCITEGIC>MOL_PROPERTY
Delta G
SciTegic.value.DoubleValue
0.697

@<SCITEGIC>MOL_PROPERTY
G
SciTegic.value.DoubleValue
24.407

@<SCITEGIC>MOL_PROPERTY
E
SciTegic.value.DoubleValue
-8.262

@<SCITEGIC>MOL_PROPERTY
-TS
SciTegic.value.DoubleValue
32.669

@<SCITEGIC>MOL_PROPERTY
U+W
SciTegic.value.DoubleValue
-29.724

@<SCITEGIC>MOL_PROPERTY
U
SciTegic.value.DoubleValue
24.276

@<SCITEGIC>MOL_PROPERTY
W
SciTegic.value.DoubleValue
-54.000

@<SCITEGIC>MOL_PROPERTY
W(PB)
SciTegic.value.DoubleValue
-56.312

@<SCITEGIC>MOL_PROPERTY
W(SA)
SciTegic.value.DoubleValue
2.312

@<SCITEGIC>MOL_PROPERTY
Valence
SciTegic.value.DoubleValue
3.269

@<SCITEGIC>MOL_PROPERTY
Coulomb
SciTegic.value.DoubleValue
20.007

@<SCITEGIC>MOL_PROPERTY
VdW
SciTegic.value.DoubleValue
1.000

@<SCITEGIC>MOL_PROPERTY
VdW6
SciTegic.value.DoubleValue
-7.483

@<SCITEGIC>MOL_PROPERTY
VdW12
SciTegic.value.DoubleValue
8.483

@<SCITEGIC>MOL_PROPERTY
Bond
SciTegic.value.DoubleValue
0.211

@<SCITEGIC>MOL_PROPERTY
Angle
SciTegic.value.DoubleValue
1.103

@<SCITEGIC>MOL_PROPERTY
Pdih
SciTegic.value.DoubleValue
1.955

@<SCITEGIC>MOL_PROPERTY
Idih
SciTegic.value.DoubleValue
0.000

@<SCITEGIC>MOL_PROPERTY
Tether
SciTegic.value.DoubleValue
0.000

@<TRIPOS>MOLECULE
guest-s13_vm2.mol2 : vm2 ligand conformer 7
          26          25           1
SMALL
USER_CHARGES
 
@<TRIPOS>ATOM
       1    C1      20.897274   19.564155   19.339829 C.3        1 MOL1        -0.2398
       2    H1      21.306456   19.076733   18.445384 H          1 MOL1         0.0972
       3    H2      20.062010   20.202465   19.023393 H          1 MOL1         0.0972
       4    H3      21.680174   20.208850   19.760146 H          1 MOL1         0.0972
       5    C2      20.432557   18.512240   20.369215 C.3        1 MOL1        -0.1383
       6    H4      21.280952   17.868570   20.640895 H          1 MOL1         0.0961
       7    H5      19.675803   17.861651   19.908793 H          1 MOL1         0.0961
       8    C3      19.850846   19.172484   21.638744 C.3        1 MOL1        -0.1407
       9    H6      20.611780   19.827624   22.083146 H          1 MOL1         0.0961
      10    H7      19.002125   19.812843   21.361196 H          1 MOL1         0.0961
      11    C4      19.386699   18.118589   22.672648 C.3        1 MOL1        -0.1407
      12    H8      20.236496   17.490218   22.970945 H          1 MOL1         0.0961
      13    H9      18.662991   17.442947   22.196060 H          1 MOL1         0.0961
      14    C5      18.722485   18.743606   23.926269 C.3        1 MOL1        -0.1472
      15    H10     17.818440   19.283492   23.614489 H          1 MOL1         0.0961
      16    H11     18.383945   17.937889   24.591166 H          1 MOL1         0.0961
      17    C6      19.636949   19.707220   24.715722 C.3        1 MOL1         0.1190
      18    H12     19.948637   20.513677   24.045447 H          1 MOL1         0.0923
      19    C7      18.867850   20.332200   25.890474 C.3        1 MOL1        -0.2463
      20    H13     18.534834   19.564876   26.600544 H          1 MOL1         0.0972
      21    H14     17.983238   20.873791   25.532898 H          1 MOL1         0.0972
      22    H15     19.499601   21.047375   26.431558 H          1 MOL1         0.0972
      23    N1      20.893340   19.037506   25.201099 N.4        1 MOL1        -0.5974
      24    H16     21.433148   18.650983   24.422095 H          1 MOL1         0.3625
      25    H17     21.499948   19.694666   25.699628 H          1 MOL1         0.3625
      26    H18     20.682183   18.268300   25.842183 H          1 MOL1         0.3625
@<TRIPOS>BOND
    1     1     2    1
    2     1     3    1
    3     1     4    1
    4     1     5    1
    5     5     6    1
    6     5     7    1
    7     5     8    1
    8     8     9    1
    9     8    10    1
   10     8    11    1
   11    11    12    1
   12    11    13    1
   13    11    14    1
   14    14    15    1
   15    14    16    1
   16    14    17    1
   17    17    18    1
   18    17    19    1
   19    19    20    1
   20    19    21    1
   21    19    22    1
   22    17    23    1
   23    23    24    1
   24    23    25    1
   25    23    26    1
@<TRIPOS>SUBSTRUCTURE
       1 MOL1            1 RESIDUE      1      MOL     
@<SCITEGIC>MOL_PROPERTY
VM2 Rank
SciTegic.value.IntegerValue
7

@<SCITEGIC>MOL_PROPERTY
Conf_Id
SciTegic.value.IntegerValue
470

@<SCITEGIC>MOL_PROPERTY
Probability
SciTegic.value.DoubleValue
5.28

@<SCITEGIC>MOL_PROPERTY
Sum Probability
SciTegic.value.DoubleValue
54.85

@<SCITEGIC>MOL_PROPERTY
Delta G
SciTegic.value.DoubleValue
0.698

@<SCITEGIC>MOL_PROPERTY
G
SciTegic.value.DoubleValue
24.408

@<SCITEGIC>MOL_PROPERTY
E
SciTegic.value.DoubleValue
-8.337

@<SCITEGIC>MOL_PROPERTY
-TS
SciTegic.value.DoubleValue
32.745

@<SCITEGIC>MOL_PROPERTY
U+W
SciTegic.value.DoubleValue
-29.799

@<SCITEGIC>MOL_PROPERTY
U
SciTegic.value.DoubleValue
24.149

@<SCITEGIC>MOL_PROPERTY
W
SciTegic.value.DoubleValue
-53.948

@<SCITEGIC>MOL_PROPERTY
W(PB)
SciTegic.value.DoubleValue
-56.255

@<SCITEGIC>MOL_PROPERTY
W(SA)
SciTegic.value.DoubleValue
2.307

@<SCITEGIC>MOL_PROPERTY
Valence
SciTegic.value.DoubleValue
3.038

@<SCITEGIC>MOL_PROPERTY
Coulomb
SciTegic.value.DoubleValue
20.324

@<SCITEGIC>MOL_PROPERTY
VdW
SciTegic.value.DoubleValue
0.787

@<SCITEGIC>MOL_PROPERTY
VdW6
SciTegic.value.DoubleValue
-7.686

@<SCITEGIC>MOL_PROPERTY
VdW12
SciTegic.value.DoubleValue
8.473

@<SCITEGIC>MOL_PROPERTY
Bond
SciTegic.value.DoubleValue
0.201

@<SCITEGIC>MOL_PROPERTY
Angle
SciTegic.value.DoubleValue
1.090

@<SCITEGIC>MOL_PROPERTY
Pdih
SciTegic.value.DoubleValue
1.748

@<SCITEGIC>MOL_PROPERTY
Idih
SciTegic.value.DoubleValue
0.000

@<SCITEGIC>MOL_PROPERTY
Tether
SciTegic.value.DoubleValue
0.000

@<TRIPOS>MOLECULE
guest-s13_vm2.mol2 : vm2 ligand conformer 8
          26          25           1
SMALL
USER_CHARGES
 
@<TRIPOS>ATOM
       1    C1      19.881458   18.933084   18.977753 C.3        1 MOL1        -0.2398
       2    H1      20.878112   18.665605   18.603104 H          1 MOL1         0.0972
       3    H2      19.237537   18.047392   18.899247 H          1 MOL1         0.0972
       4    H3      19.470607   19.708059   18.317709 H          1 MOL1         0.0972
       5    C2      19.952772   19.439308   20.434113 C.3        1 MOL1        -0.1383
       6    H4      18.945879   19.735179   20.756645 H          1 MOL1         0.0961
       7    H5      20.579312   20.341219   20.475529 H          1 MOL1         0.0961
       8    C3      20.525098   18.360999   21.384605 C.3        1 MOL1        -0.1407
       9    H6      19.867248   17.480927   21.385837 H          1 MOL1         0.0961
      10    H7      21.493603   18.020314   20.993001 H          1 MOL1         0.0961
      11    C4      20.732304   18.857082   22.837039 C.3        1 MOL1        -0.1407
      12    H8      21.392044   19.735847   22.834204 H          1 MOL1         0.0961
      13    H9      21.265134   18.072485   23.390031 H          1 MOL1         0.0961
      14    C5      19.408992   19.199288   23.569233 C.3        1 MOL1        -0.1472
      15    H10     18.891197   20.000236   23.027366 H          1 MOL1         0.0961
      16    H11     18.741054   18.327810   23.556725 H          1 MOL1         0.0961
      17    C6      19.629353   19.662962   25.025881 C.3        1 MOL1         0.1190
      18    H12     20.325186   20.507602   25.015230 H          1 MOL1         0.0923
      19    C7      18.303450   20.138437   25.641466 C.3        1 MOL1        -0.2463
      20    H13     17.875215   20.962423   25.057177 H          1 MOL1         0.0972
      21    H14     18.458716   20.502407   26.664598 H          1 MOL1         0.0972
      22    H15     17.567478   19.325366   25.675819 H          1 MOL1         0.0972
      23    N1      20.254572   18.596840   25.883910 N.4        1 MOL1        -0.5974
      24    H16     21.162062   18.302333   25.513753 H          1 MOL1         0.3625
      25    H17     20.407909   18.928662   26.840351 H          1 MOL1         0.3625
      26    H18     19.659749   17.765963   25.939731 H          1 MOL1         0.3625
@<TRIPOS>BOND
    1     1     2    1
    2     1     3    1
    3     1     4    1
    4     1     5    1
    5     5     6    1
    6     5     7    1
    7     5     8    1
    8     8     9    1
    9     8    10    1
   10     8    11    1
   11    11    12    1
   12    11    13    1
   13    11    14    1
   14    14    15    1
   15    14    16    1
   16    14    17    1
   17    17    18    1
   18    17    19    1
   19    19    20    1
   20    19    21    1
   21    19    22    1
   22    17    23    1
   23    23    24    1
   24    23    25    1
   25    23    26    1
@<TRIPOS>SUBSTRUCTURE
       1 MOL1            1 RESIDUE      1      MOL     
@<SCITEGIC>MOL_PROPERTY
VM2 Rank
SciTegic.value.IntegerValue
8

@<SCITEGIC>MOL_PROPERTY
Conf_Id
SciTegic.value.IntegerValue
610

@<SCITEGIC>MOL_PROPERTY
Probability
SciTegic.value.DoubleValue
4.39

@<SCITEGIC>MOL_PROPERTY
Sum Probability
SciTegic.value.DoubleValue
59.25

@<SCITEGIC>MOL_PROPERTY
Delta G
SciTegic.value.DoubleValue
0.808

@<SCITEGIC>MOL_PROPERTY
G
SciTegic.value.DoubleValue
24.518

@<SCITEGIC>MOL_PROPERTY
E
SciTegic.value.DoubleValue
-8.104

@<SCITEGIC>MOL_PROPERTY
-TS
SciTegic.value.DoubleValue
32.622

@<SCITEGIC>MOL_PROPERTY
U+W
SciTegic.value.DoubleValue
-29.566

@<SCITEGIC>MOL_PROPERTY
U
SciTegic.value.DoubleValue
24.282

@<SCITEGIC>MOL_PROPERTY
W
SciTegic.value.DoubleValue
-53.847

@<SCITEGIC>MOL_PROPERTY
W(PB)
SciTegic.value.DoubleValue
-56.207

@<SCITEGIC>MOL_PROPERTY
W(SA)
SciTegic.value.DoubleValue
2.360

@<SCITEGIC>MOL_PROPERTY
Valence
SciTegic.value.DoubleValue
3.311

@<SCITEGIC>MOL_PROPERTY
Coulomb
SciTegic.value.DoubleValue
19.887

@<SCITEGIC>MOL_PROPERTY
VdW
SciTegic.value.DoubleValue
1.083

@<SCITEGIC>MOL_PROPERTY
VdW6
SciTegic.value.DoubleValue
-7.444

@<SCITEGIC>MOL_PROPERTY
VdW12
SciTegic.value.DoubleValue
8.527

@<SCITEGIC>MOL_PROPERTY
Bond
SciTegic.value.DoubleValue
0.218

@<SCITEGIC>MOL_PROPERTY
Angle
SciTegic.value.DoubleValue
1.167

@<SCITEGIC>MOL_PROPERTY
Pdih
SciTegic.value.DoubleValue
1.926

@<SCITEGIC>MOL_PROPERTY
Idih
SciTegic.value.DoubleValue
0.000

@<SCITEGIC>MOL_PROPERTY
Tether
SciTegic.value.DoubleValue
0.000

@<TRIPOS>MOLECULE
guest-s13_vm2.mol2 : vm2 ligand conformer 9
          26          25           1
SMALL
USER_CHARGES
 
@<TRIPOS>ATOM
       1    C1      20.963585   19.512729   19.355314 C.3        1 MOL1        -0.2398
       2    H1      21.365515   20.475828   19.696080 H          1 MOL1         0.0972
       3    H2      21.772348   18.771394   19.394848 H          1 MOL1         0.0972
       4    H3      20.661426   19.626062   18.306078 H          1 MOL1         0.0972
       5    C2      19.765250   19.073177   20.223013 C.3        1 MOL1        -0.1383
       6    H4      19.363904   18.125757   19.836703 H          1 MOL1         0.0961
       7    H5      18.960655   19.816917   20.136969 H          1 MOL1         0.0961
       8    C3      20.163870   18.905465   21.705894 C.3        1 MOL1        -0.1407
       9    H6      20.966969   18.159885   21.786651 H          1 MOL1         0.0961
      10    H7      20.571528   19.855115   22.077245 H          1 MOL1         0.0961
      11    C4      18.962244   18.468305   22.577542 C.3        1 MOL1        -0.1407
      12    H8      18.532625   17.546892   22.160738 H          1 MOL1         0.0961
      13    H9      18.166909   19.223311   22.521463 H          1 MOL1         0.0961
      14    C5      19.343822   18.205206   24.057317 C.3        1 MOL1        -0.1472
      15    H10     18.447869   17.885177   24.605609 H          1 MOL1         0.0961
      16    H11     20.039560   17.356386   24.089773 H          1 MOL1         0.0961
      17    C6      19.990376   19.403696   24.791603 C.3        1 MOL1         0.1190
      18    H12     20.883791   19.706855   24.237799 H          1 MOL1         0.0923
      19    C7      19.038925   20.610349   24.878975 C.3        1 MOL1        -0.2463
      20    H13     18.100514   20.340289   25.379039 H          1 MOL1         0.0972
      21    H14     18.798127   20.999914   23.883007 H          1 MOL1         0.0972
      22    H15     19.502656   21.428238   25.444009 H          1 MOL1         0.0972
      23    N1      20.459928   19.009072   26.164342 N.4        1 MOL1        -0.5974
      24    H16     19.679280   18.712875   26.756246 H          1 MOL1         0.3625
      25    H17     21.128234   18.234116   26.126453 H          1 MOL1         0.3625
      26    H18     20.924392   19.788159   26.639460 H          1 MOL1         0.3625
@<TRIPOS>BOND
    1     1     2    1
    2     1     3    1
    3     1     4    1
    4     1     5    1
    5     5     6    1
    6     5     7    1
    7     5     8    1
    8     8     9    1
    9     8    10    1
   10     8    11    1
   11    11    12    1
   12    11    13    1
   13    11    14    1
   14    14    15    1
   15    14    16    1
   16    14    17    1
   17    17    18    1
   18    17    19    1
   19    19    20    1
   20    19    21    1
   21    19    22    1
   22    17    23    1
   23    23    24    1
   24    23    25    1
   25    23    26    1
@<TRIPOS>SUBSTRUCTURE
       1 MOL1            1 RESIDUE      1      MOL     
@<SCITEGIC>MOL_PROPERTY
VM2 Rank
SciTegic.value.IntegerValue
9

@<SCITEGIC>MOL_PROPERTY
Conf_Id
SciTegic.value.IntegerValue
232

@<SCITEGIC>MOL_PROPERTY
Probability
SciTegic.value.DoubleValue
3.72

@<SCITEGIC>MOL_PROPERTY
Sum Probability
SciTegic.value.DoubleValue
62.96

@<SCITEGIC>MOL_PROPERTY
Delta G
SciTegic.value.DoubleValue
0.908

@<SCITEGIC>MOL_PROPERTY
G
SciTegic.value.DoubleValue
24.617

@<SCITEGIC>MOL_PROPERTY
E
SciTegic.value.DoubleValue
-8.225

@<SCITEGIC>MOL_PROPERTY
-TS
SciTegic.value.DoubleValue
32.842

@<SCITEGIC>MOL_PROPERTY
U+W
SciTegic.value.DoubleValue
-29.686

@<SCITEGIC>MOL_PROPERTY
U
SciTegic.value.DoubleValue
24.335

@<SCITEGIC>MOL_PROPERTY
W
SciTegic.value.DoubleValue
-54.022

@<SCITEGIC>MOL_PROPERTY
W(PB)
SciTegic.value.DoubleValue
-56.337

@<SCITEGIC>MOL_PROPERTY
W(SA)
SciTegic.value.DoubleValue
2.315

@<SCITEGIC>MOL_PROPERTY
Valence
SciTegic.value.DoubleValue
3.530

@<SCITEGIC>MOL_PROPERTY
Coulomb
SciTegic.value.DoubleValue
19.944

@<SCITEGIC>MOL_PROPERTY
VdW
SciTegic.value.DoubleValue
0.861

@<SCITEGIC>MOL_PROPERTY
VdW6
SciTegic.value.DoubleValue
-7.915

@<SCITEGIC>MOL_PROPERTY
VdW12
SciTegic.value.DoubleValue
8.775

@<SCITEGIC>MOL_PROPERTY
Bond
SciTegic.value.DoubleValue
0.213

@<SCITEGIC>MOL_PROPERTY
Angle
SciTegic.value.DoubleValue
1.415

@<SCITEGIC>MOL_PROPERTY
Pdih
SciTegic.value.DoubleValue
1.902

@<SCITEGIC>MOL_PROPERTY
Idih
SciTegic.value.DoubleValue
0.000

@<SCITEGIC>MOL_PROPERTY
Tether
SciTegic.value.DoubleValue
0.000

@<TRIPOS>MOLECULE
guest-s13_vm2.mol2 : vm2 ligand conformer 10
          26          25           1
SMALL
USER_CHARGES
 
@<TRIPOS>ATOM
       1    C1      20.806437   19.742799   19.540152 C.3        1 MOL1        -0.2398
       2    H1      21.781351   19.244505   19.619342 H          1 MOL1         0.0972
       3    H2      20.685658   20.080951   18.502847 H          1 MOL1         0.0972
       4    H3      20.823129   20.635351   20.177742 H          1 MOL1         0.0972
       5    C2      19.659057   18.784968   19.933645 C.3        1 MOL1        -0.1383
       6    H4      19.607002   17.972702   19.195188 H          1 MOL1         0.0961
       7    H5      18.698363   19.315434   19.875082 H          1 MOL1         0.0961
       8    C3      19.830306   18.165538   21.341732 C.3        1 MOL1        -0.1407
       9    H6      19.035842   17.421982   21.494527 H          1 MOL1         0.0961
      10    H7      20.780748   17.616068   21.386818 H          1 MOL1         0.0961
      11    C4      19.773610   19.207484   22.484755 C.3        1 MOL1        -0.1407
      12    H8      18.847823   19.789918   22.391043 H          1 MOL1         0.0961
      13    H9      20.609175   19.913225   22.388487 H          1 MOL1         0.0961
      14    C5      19.838370   18.532828   23.877183 C.3        1 MOL1        -0.1472
      15    H10     18.967001   17.878487   24.013022 H          1 MOL1         0.0961
      16    H11     20.723237   17.883438   23.909438 H          1 MOL1         0.0961
      17    C6      19.924158   19.534515   25.051549 C.3        1 MOL1         0.1190
      18    H12     20.774821   20.199647   24.873611 H          1 MOL1         0.0923
      19    C7      18.652525   20.392977   25.176495 C.3        1 MOL1        -0.2463
      20    H13     18.512924   21.029994   24.295539 H          1 MOL1         0.0972
      21    H14     18.718132   21.055872   26.048037 H          1 MOL1         0.0972
      22    H15     17.759985   19.765674   25.292865 H          1 MOL1         0.0972
      23    N1      20.203537   18.826891   26.348489 N.4        1 MOL1        -0.5974
      24    H16     21.070263   18.283437   26.302875 H          1 MOL1         0.3625
      25    H17     20.300896   19.489640   27.122920 H          1 MOL1         0.3625
      26    H18     19.448221   18.180936   26.592918 H          1 MOL1         0.3625
@<TRIPOS>BOND
    1     1     2    1
    2     1     3    1
    3     1     4    1
    4     1     5    1
    5     5     6    1
    6     5     7    1
    7     5     8    1
    8     8     9    1
    9     8    10    1
   10     8    11    1
   11    11    12    1
   12    11    13    1
   13    11    14    1
   14    14    15    1
   15    14    16    1
   16    14    17    1
   17    17    18    1
   18    17    19    1
   19    19    20    1
   20    19    21    1
   21    19    22    1
   22    17    23    1
   23    23    24    1
   24    23    25    1
   25    23    26    1
@<TRIPOS>SUBSTRUCTURE
       1 MOL1            1 RESIDUE      1      MOL     
@<SCITEGIC>MOL_PROPERTY
VM2 Rank
SciTegic.value.IntegerValue
10

@<SCITEGIC>MOL_PROPERTY
Conf_Id
SciTegic.value.IntegerValue
764

@<SCITEGIC>MOL_PROPERTY
Probability
SciTegic.value.DoubleValue
2.97

@<SCITEGIC>MOL_PROPERTY
Sum Probability
SciTegic.value.DoubleValue
65.94

@<SCITEGIC>MOL_PROPERTY
Delta G
SciTegic.value.DoubleValue
1.041

@<SCITEGIC>MOL_PROPERTY
G
SciTegic.value.DoubleValue
24.751

@<SCITEGIC>MOL_PROPERTY
E
SciTegic.value.DoubleValue
-7.930

@<SCITEGIC>MOL_PROPERTY
-TS
SciTegic.value.DoubleValue
32.680

@<SCITEGIC>MOL_PROPERTY
U+W
SciTegic.value.DoubleValue
-29.392

@<SCITEGIC>MOL_PROPERTY
U
SciTegic.value.DoubleValue
24.442

@<SCITEGIC>MOL_PROPERTY
W
SciTegic.value.DoubleValue
-53.834

@<SCITEGIC>MOL_PROPERTY
W(PB)
SciTegic.value.DoubleValue
-56.128

@<SCITEGIC>MOL_PROPERTY
W(SA)
SciTegic.value.DoubleValue
2.295

@<SCITEGIC>MOL_PROPERTY
Valence
SciTegic.value.DoubleValue
3.781

@<SCITEGIC>MOL_PROPERTY
Coulomb
SciTegic.value.DoubleValue
19.492

@<SCITEGIC>MOL_PROPERTY
VdW
SciTegic.value.DoubleValue
1.170

@<SCITEGIC>MOL_PROPERTY
VdW6
SciTegic.value.DoubleValue
-7.583

@<SCITEGIC>MOL_PROPERTY
VdW12
SciTegic.value.DoubleValue
8.752

@<SCITEGIC>MOL_PROPERTY
Bond
SciTegic.value.DoubleValue
0.218

@<SCITEGIC>MOL_PROPERTY
Angle
SciTegic.value.DoubleValue
1.390

@<SCITEGIC>MOL_PROPERTY
Pdih
SciTegic.value.DoubleValue
2.173

@<SCITEGIC>MOL_PROPERTY
Idih
SciTegic.value.DoubleValue
0.000

@<SCITEGIC>MOL_PROPERTY
Tether
SciTegic.value.DoubleValue
0.000

@<TRIPOS>MOLECULE
guest-s13_vm2.mol2 : vm2 ligand conformer 11
          26          25           1
SMALL
USER_CHARGES
 
@<TRIPOS>ATOM
       1    C1      19.359048   19.542373   19.449265 C.3        1 MOL1        -0.2398
       2    H1      19.523032   19.914665   18.429731 H          1 MOL1         0.0972
       3    H2      18.554365   18.796801   19.408842 H          1 MOL1         0.0972
       4    H3      19.014738   20.388172   20.057104 H          1 MOL1         0.0972
       5    C2      20.658951   18.927223   20.015637 C.3        1 MOL1        -0.1383
       6    H4      21.437957   19.700061   20.075879 H          1 MOL1         0.0961
       7    H5      21.029807   18.171704   19.308908 H          1 MOL1         0.0961
       8    C3      20.473207   18.261851   21.400799 C.3        1 MOL1        -0.1407
       9    H6      19.707847   17.476588   21.330817 H          1 MOL1         0.0961
      10    H7      21.410427   17.756521   21.672048 H          1 MOL1         0.0961
      11    C4      20.094284   19.261817   22.519783 C.3        1 MOL1        -0.1407
      12    H8      19.127506   19.722650   22.283306 H          1 MOL1         0.0961
      13    H9      20.836853   20.070888   22.555088 H          1 MOL1         0.0961
      14    C5      20.017389   18.570459   23.903483 C.3        1 MOL1        -0.1472
      15    H10     19.232580   17.802458   23.890350 H          1 MOL1         0.0961
      16    H11     20.964113   18.044687   24.084953 H          1 MOL1         0.0961
      17    C6      19.769701   19.547437   25.075771 C.3        1 MOL1         0.1190
      18    H12     20.538254   20.325810   25.041824 H          1 MOL1         0.0923
      19    C7      18.388823   20.222192   24.988235 C.3        1 MOL1        -0.2463
      20    H13     18.217636   20.865963   25.859773 H          1 MOL1         0.0972
      21    H14     17.584409   19.476977   24.952817 H          1 MOL1         0.0972
      22    H15     18.310002   20.856286   24.097715 H          1 MOL1         0.0972
      23    N1      19.926597   18.854648   26.401028 N.4        1 MOL1        -0.5974
      24    H16     20.855520   18.435195   26.500026 H          1 MOL1         0.3625
      25    H17     19.802915   19.506480   27.180948 H          1 MOL1         0.3625
      26    H18     19.237670   18.106610   26.516449 H          1 MOL1         0.3625
@<TRIPOS>BOND
    1     1     2    1
    2     1     3    1
    3     1     4    1
    4     1     5    1
    5     5     6    1
    6     5     7    1
    7     5     8    1
    8     8     9    1
    9     8    10    1
   10     8    11    1
   11    11    12    1
   12    11    13    1
   13    11    14    1
   14    14    15    1
   15    14    16    1
   16    14    17    1
   17    17    18    1
   18    17    19    1
   19    19    20    1
   20    19    21    1
   21    19    22    1
   22    17    23    1
   23    23    24    1
   24    23    25    1
   25    23    26    1
@<TRIPOS>SUBSTRUCTURE
       1 MOL1            1 RESIDUE      1      MOL     
@<SCITEGIC>MOL_PROPERTY
VM2 Rank
SciTegic.value.IntegerValue
11

@<SCITEGIC>MOL_PROPERTY
Conf_Id
SciTegic.value.IntegerValue
545

@<SCITEGIC>MOL_PROPERTY
Probability
SciTegic.value.DoubleValue
2.52

@<SCITEGIC>MOL_PROPERTY
Sum Probability
SciTegic.value.DoubleValue
68.45

@<SCITEGIC>MOL_PROPERTY
Delta G
SciTegic.value.DoubleValue
1.140

@<SCITEGIC>MOL_PROPERTY
G
SciTegic.value.DoubleValue
24.850

@<SCITEGIC>MOL_PROPERTY
E
SciTegic.value.DoubleValue
-7.824

@<SCITEGIC>MOL_PROPERTY
-TS
SciTegic.value.DoubleValue
32.674

@<SCITEGIC>MOL_PROPERTY
U+W
SciTegic.value.DoubleValue
-29.286

@<SCITEGIC>MOL_PROPERTY
U
SciTegic.value.DoubleValue
24.454

@<SCITEGIC>MOL_PROPERTY
W
SciTegic.value.DoubleValue
-53.740

@<SCITEGIC>MOL_PROPERTY
W(PB)
SciTegic.value.DoubleValue
-56.070

@<SCITEGIC>MOL_PROPERTY
W(SA)
SciTegic.value.DoubleValue
2.330

@<SCITEGIC>MOL_PROPERTY
Valence
SciTegic.value.DoubleValue
3.783

@<SCITEGIC>MOL_PROPERTY
Coulomb
SciTegic.value.DoubleValue
19.491

@<SCITEGIC>MOL_PROPERTY
VdW
SciTegic.value.DoubleValue
1.181

@<SCITEGIC>MOL_PROPERTY
VdW6
SciTegic.value.DoubleValue
-7.595

@<SCITEGIC>MOL_PROPERTY
VdW12
SciTegic.value.DoubleValue
8.776

@<SCITEGIC>MOL_PROPERTY
Bond
SciTegic.value.DoubleValue
0.221

@<SCITEGIC>MOL_PROPERTY
Angle
SciTegic.value.DoubleValue
1.391

@<SCITEGIC>MOL_PROPERTY
Pdih
SciTegic.value.DoubleValue
2.171

@<SCITEGIC>MOL_PROPERTY
Idih
SciTegic.value.DoubleValue
0.000

@<SCITEGIC>MOL_PROPERTY
Tether
SciTegic.value.DoubleValue
0.000

@<TRIPOS>MOLECULE
guest-s13_vm2.mol2 : vm2 ligand conformer 12
          26          25           1
SMALL
USER_CHARGES
 
@<TRIPOS>ATOM
       1    C1      20.593610   17.767007   19.935932 C.3        1 MOL1        -0.2398
       2    H1      20.389336   17.248441   18.990261 H          1 MOL1         0.0972
       3    H2      21.669647   17.980473   19.975962 H          1 MOL1         0.0972
       4    H3      20.349309   17.074278   20.750675 H          1 MOL1         0.0972
       5    C2      19.764903   19.068343   20.028749 C.3        1 MOL1        -0.1383
       6    H4      18.693146   18.825471   20.019022 H          1 MOL1         0.0961
       7    H5      19.951360   19.671492   19.129173 H          1 MOL1         0.0961
       8    C3      20.097104   19.922301   21.276242 C.3        1 MOL1        -0.1407
       9    H6      21.164705   20.182008   21.268658 H          1 MOL1         0.0961
      10    H7      19.547714   20.871218   21.205050 H          1 MOL1         0.0961
      11    C4      19.737427   19.228804   22.612201 C.3        1 MOL1        -0.1407
      12    H8      20.334491   18.315348   22.723621 H          1 MOL1         0.0961
      13    H9      18.683378   18.923254   22.583491 H          1 MOL1         0.0961
      14    C5      19.986115   20.163987   23.824398 C.3        1 MOL1        -0.1472
      15    H10     21.029637   20.504964   23.808206 H          1 MOL1         0.0961
      16    H11     19.371620   21.067744   23.717821 H          1 MOL1         0.0961
      17    C6      19.700486   19.530149   25.206555 C.3        1 MOL1         0.1190
      18    H12     19.939910   20.282559   25.964443 H          1 MOL1         0.0923
      19    C7      18.217803   19.155220   25.376136 C.3        1 MOL1        -0.2463
      20    H13     17.928381   18.333050   24.710955 H          1 MOL1         0.0972
      21    H14     17.571154   20.015213   25.162102 H          1 MOL1         0.0972
      22    H15     18.018169   18.837764   26.406932 H          1 MOL1         0.0972
      23    N1      20.590553   18.352189   25.493787 N.4        1 MOL1        -0.5974
      24    H16     20.420944   17.588579   24.834742 H          1 MOL1         0.3625
      25    H17     21.580668   18.604349   25.426211 H          1 MOL1         0.3625
      26    H18     20.432429   17.985022   26.436451 H          1 MOL1         0.3625
@<TRIPOS>BOND
    1     1     2    1
    2     1     3    1
    3     1     4    1
    4     1     5    1
    5     5     6    1
    6     5     7    1
    7     5     8    1
    8     8     9    1
    9     8    10    1
   10     8    11    1
   11    11    12    1
   12    11    13    1
   13    11    14    1
   14    14    15    1
   15    14    16    1
   16    14    17    1
   17    17    18    1
   18    17    19    1
   19    19    20    1
   20    19    21    1
   21    19    22    1
   22    17    23    1
   23    23    24    1
   24    23    25    1
   25    23    26    1
@<TRIPOS>SUBSTRUCTURE
       1 MOL1            1 RESIDUE      1      MOL     
@<SCITEGIC>MOL_PROPERTY
VM2 Rank
SciTegic.value.IntegerValue
12

@<SCITEGIC>MOL_PROPERTY
Conf_Id
SciTegic.value.IntegerValue
864

@<SCITEGIC>MOL_PROPERTY
Probability
SciTegic.value.DoubleValue
2.41

@<SCITEGIC>MOL_PROPERTY
Sum Probability
SciTegic.value.DoubleValue
70.86

@<SCITEGIC>MOL_PROPERTY
Delta G
SciTegic.value.DoubleValue
1.167

@<SCITEGIC>MOL_PROPERTY
G
SciTegic.value.DoubleValue
24.877

@<SCITEGIC>MOL_PROPERTY
E
SciTegic.value.DoubleValue
-7.930

@<SCITEGIC>MOL_PROPERTY
-TS
SciTegic.value.DoubleValue
32.807

@<SCITEGIC>MOL_PROPERTY
U+W
SciTegic.value.DoubleValue
-29.392

@<SCITEGIC>MOL_PROPERTY
U
SciTegic.value.DoubleValue
24.790

@<SCITEGIC>MOL_PROPERTY
W
SciTegic.value.DoubleValue
-54.182

@<SCITEGIC>MOL_PROPERTY
W(PB)
SciTegic.value.DoubleValue
-56.462

@<SCITEGIC>MOL_PROPERTY
W(SA)
SciTegic.value.DoubleValue
2.279

@<SCITEGIC>MOL_PROPERTY
Valence
SciTegic.value.DoubleValue
3.751

@<SCITEGIC>MOL_PROPERTY
Coulomb
SciTegic.value.DoubleValue
19.894

@<SCITEGIC>MOL_PROPERTY
VdW
SciTegic.value.DoubleValue
1.145

@<SCITEGIC>MOL_PROPERTY
VdW6
SciTegic.value.DoubleValue
-8.074

@<SCITEGIC>MOL_PROPERTY
VdW12
SciTegic.value.DoubleValue
9.219

@<SCITEGIC>MOL_PROPERTY
Bond
SciTegic.value.DoubleValue
0.243

@<SCITEGIC>MOL_PROPERTY
Angle
SciTegic.value.DoubleValue
1.440

@<SCITEGIC>MOL_PROPERTY
Pdih
SciTegic.value.DoubleValue
2.068

@<SCITEGIC>MOL_PROPERTY
Idih
SciTegic.value.DoubleValue
0.000

@<SCITEGIC>MOL_PROPERTY
Tether
SciTegic.value.DoubleValue
0.000

@<TRIPOS>MOLECULE
guest-s13_vm2.mol2 : vm2 ligand conformer 13
          26          25           1
SMALL
USER_CHARGES
 
@<TRIPOS>ATOM
       1    C1      19.388481   18.123924   19.727886 C.3        1 MOL1        -0.2398
       2    H1      19.563394   17.495618   18.844954 H          1 MOL1         0.0972
       3    H2      18.971463   17.480494   20.512420 H          1 MOL1         0.0972
       4    H3      18.633876   18.875163   19.460991 H          1 MOL1         0.0972
       5    C2      20.704291   18.795073   20.182974 C.3        1 MOL1        -0.1383
       6    H4      21.145450   19.325039   19.327224 H          1 MOL1         0.0961
       7    H5      21.430994   18.023922   20.474466 H          1 MOL1         0.0961
       8    C3      20.513373   19.800520   21.344236 C.3        1 MOL1        -0.1407
       9    H6      21.470943   20.307727   21.526225 H          1 MOL1         0.0961
      10    H7      19.802992   20.581507   21.039778 H          1 MOL1         0.0961
      11    C4      20.032243   19.140650   22.658871 C.3        1 MOL1        -0.1407
      12    H8      20.718684   18.326249   22.925050 H          1 MOL1         0.0961
      13    H9      19.044790   18.690398   22.499733 H          1 MOL1         0.0961
      14    C5      19.954803   20.168959   23.817520 C.3        1 MOL1        -0.1472
      15    H10     20.935307   20.646979   23.942072 H          1 MOL1         0.0961
      16    H11     19.259698   20.973298   23.542476 H          1 MOL1         0.0961
      17    C6      19.521508   19.582501   25.182077 C.3        1 MOL1         0.1190
      18    H12     19.539816   20.401486   25.907863 H          1 MOL1         0.0923
      19    C7      18.086956   19.027076   25.144773 C.3        1 MOL1        -0.2463
      20    H13     18.012547   18.136748   24.509217 H          1 MOL1         0.0972
      21    H14     17.386569   19.781062   24.764618 H          1 MOL1         0.0972
      22    H15     17.758272   18.746687   26.152999 H          1 MOL1         0.0972
      23    N1      20.486344   18.549297   25.695664 N.4        1 MOL1        -0.5974
      24    H16     21.436336   18.924805   25.766177 H          1 MOL1         0.3625
      25    H17     20.218915   18.217754   26.626775 H          1 MOL1         0.3625
      26    H18     20.521850   17.734478   25.078361 H          1 MOL1         0.3625
@<TRIPOS>BOND
    1     1     2    1
    2     1     3    1
    3     1     4    1
    4     1     5    1
    5     5     6    1
    6     5     7    1
    7     5     8    1
    8     8     9    1
    9     8    10    1
   10     8    11    1
   11    11    12    1
   12    11    13    1
   13    11    14    1
   14    14    15    1
   15    14    16    1
   16    14    17    1
   17    17    18    1
   18    17    19    1
   19    19    20    1
   20    19    21    1
   21    19    22    1
   22    17    23    1
   23    23    24    1
   24    23    25    1
   25    23    26    1
@<TRIPOS>SUBSTRUCTURE
       1 MOL1            1 RESIDUE      1      MOL     
@<SCITEGIC>MOL_PROPERTY
VM2 Rank
SciTegic.value.IntegerValue
13

@<SCITEGIC>MOL_PROPERTY
Conf_Id
SciTegic.value.IntegerValue
173

@<SCITEGIC>MOL_PROPERTY
Probability
SciTegic.value.DoubleValue
2.39

@<SCITEGIC>MOL_PROPERTY
Sum Probability
SciTegic.value.DoubleValue
73.25

@<SCITEGIC>MOL_PROPERTY
Delta G
SciTegic.value.DoubleValue
1.171

@<SCITEGIC>MOL_PROPERTY
G
SciTegic.value.DoubleValue
24.881

@<SCITEGIC>MOL_PROPERTY
E
SciTegic.value.DoubleValue
-7.928

@<SCITEGIC>MOL_PROPERTY
-TS
SciTegic.value.DoubleValue
32.808

@<SCITEGIC>MOL_PROPERTY
U+W
SciTegic.value.DoubleValue
-29.389

@<SCITEGIC>MOL_PROPERTY
U
SciTegic.value.DoubleValue
24.690

@<SCITEGIC>MOL_PROPERTY
W
SciTegic.value.DoubleValue
-54.079

@<SCITEGIC>MOL_PROPERTY
W(PB)
SciTegic.value.DoubleValue
-56.373

@<SCITEGIC>MOL_PROPERTY
W(SA)
SciTegic.value.DoubleValue
2.294

@<SCITEGIC>MOL_PROPERTY
Valence
SciTegic.value.DoubleValue
3.755

@<SCITEGIC>MOL_PROPERTY
Coulomb
SciTegic.value.DoubleValue
19.785

@<SCITEGIC>MOL_PROPERTY
VdW
SciTegic.value.DoubleValue
1.150

@<SCITEGIC>MOL_PROPERTY
VdW6
SciTegic.value.DoubleValue
-8.077

@<SCITEGIC>MOL_PROPERTY
VdW12
SciTegic.value.DoubleValue
9.227

@<SCITEGIC>MOL_PROPERTY
Bond
SciTegic.value.DoubleValue
0.244

@<SCITEGIC>MOL_PROPERTY
Angle
SciTegic.value.DoubleValue
1.443

@<SCITEGIC>MOL_PROPERTY
Pdih
SciTegic.value.DoubleValue
2.068

@<SCITEGIC>MOL_PROPERTY
Idih
SciTegic.value.DoubleValue
0.000

@<SCITEGIC>MOL_PROPERTY
Tether
SciTegic.value.DoubleValue
0.000

@<TRIPOS>MOLECULE
guest-s13_vm2.mol2 : vm2 ligand conformer 14
          26          25           1
SMALL
USER_CHARGES
 
@<TRIPOS>ATOM
       1    C1      20.261404   18.306981   19.127399 C.3        1 MOL1        -0.2398
       2    H1      21.355156   18.215283   19.104266 H          1 MOL1         0.0972
       3    H2      19.837257   17.393015   18.691740 H          1 MOL1         0.0972
       4    H3      19.975256   19.150200   18.485274 H          1 MOL1         0.0972
       5    C2      19.752489   18.509911   20.570324 C.3        1 MOL1        -0.1383
       6    H4      20.021822   17.630355   21.170067 H          1 MOL1         0.0961
       7    H5      18.655089   18.568211   20.564553 H          1 MOL1         0.0961
       8    C3      20.340514   19.791145   21.207326 C.3        1 MOL1        -0.1407
       9    H6      21.435184   19.710822   21.257615 H          1 MOL1         0.0961
      10    H7      20.124570   20.647088   20.553021 H          1 MOL1         0.0961
      11    C4      19.776062   20.095524   22.616786 C.3        1 MOL1        -0.1407
      12    H8      18.685542   20.204588   22.549622 H          1 MOL1         0.0961
      13    H9      20.166505   21.068468   22.945995 H          1 MOL1         0.0961
      14    C5      20.143019   19.020756   23.672505 C.3        1 MOL1        -0.1472
      15    H10     19.646261   18.071987   23.433183 H          1 MOL1         0.0961
      16    H11     21.223218   18.831550   23.618665 H          1 MOL1         0.0961
      17    C6      19.788982   19.430015   25.120414 C.3        1 MOL1         0.1190
      18    H12     20.263013   20.393879   25.330032 H          1 MOL1         0.0923
      19    C7      18.270615   19.579465   25.324678 C.3        1 MOL1        -0.2463
      20    H13     17.742542   18.652454   25.068812 H          1 MOL1         0.0972
      21    H14     17.863155   20.388770   24.707831 H          1 MOL1         0.0972
      22    H15     18.043542   19.822794   26.369924 H          1 MOL1         0.0972
      23    N1      20.354914   18.454203   26.114568 N.4        1 MOL1        -0.5974
      24    H16     21.371712   18.371642   26.025475 H          1 MOL1         0.3625
      25    H17     20.156777   18.743191   27.076698 H          1 MOL1         0.3625
      26    H18     19.958297   17.519098   25.989141 H          1 MOL1         0.3625
@<TRIPOS>BOND
    1     1     2    1
    2     1     3    1
    3     1     4    1
    4     1     5    1
    5     5     6    1
    6     5     7    1
    7     5     8    1
    8     8     9    1
    9     8    10    1
   10     8    11    1
   11    11    12    1
   12    11    13    1
   13    11    14    1
   14    14    15    1
   15    14    16    1
   16    14    17    1
   17    17    18    1
   18    17    19    1
   19    19    20    1
   20    19    21    1
   21    19    22    1
   22    17    23    1
   23    23    24    1
   24    23    25    1
   25    23    26    1
@<TRIPOS>SUBSTRUCTURE
       1 MOL1            1 RESIDUE      1      MOL     
@<SCITEGIC>MOL_PROPERTY
VM2 Rank
SciTegic.value.IntegerValue
14

@<SCITEGIC>MOL_PROPERTY
Conf_Id
SciTegic.value.IntegerValue
229

@<SCITEGIC>MOL_PROPERTY
Probability
SciTegic.value.DoubleValue
2.35

@<SCITEGIC>MOL_PROPERTY
Sum Probability
SciTegic.value.DoubleValue
75.60

@<SCITEGIC>MOL_PROPERTY
Delta G
SciTegic.value.DoubleValue
1.181

@<SCITEGIC>MOL_PROPERTY
G
SciTegic.value.DoubleValue
24.891

@<SCITEGIC>MOL_PROPERTY
E
SciTegic.value.DoubleValue
-7.809

@<SCITEGIC>MOL_PROPERTY
-TS
SciTegic.value.DoubleValue
32.700

@<SCITEGIC>MOL_PROPERTY
U+W
SciTegic.value.DoubleValue
-29.271

@<SCITEGIC>MOL_PROPERTY
U
SciTegic.value.DoubleValue
24.614

@<SCITEGIC>MOL_PROPERTY
W
SciTegic.value.DoubleValue
-53.885

@<SCITEGIC>MOL_PROPERTY
W(PB)
SciTegic.value.DoubleValue
-56.192

@<SCITEGIC>MOL_PROPERTY
W(SA)
SciTegic.value.DoubleValue
2.307

@<SCITEGIC>MOL_PROPERTY
Valence
SciTegic.value.DoubleValue
3.779

@<SCITEGIC>MOL_PROPERTY
Coulomb
SciTegic.value.DoubleValue
19.717

@<SCITEGIC>MOL_PROPERTY
VdW
SciTegic.value.DoubleValue
1.118

@<SCITEGIC>MOL_PROPERTY
VdW6
SciTegic.value.DoubleValue
-7.653

@<SCITEGIC>MOL_PROPERTY
VdW12
SciTegic.value.DoubleValue
8.771

@<SCITEGIC>MOL_PROPERTY
Bond
SciTegic.value.DoubleValue
0.222

@<SCITEGIC>MOL_PROPERTY
Angle
SciTegic.value.DoubleValue
1.351

@<SCITEGIC>MOL_PROPERTY
Pdih
SciTegic.value.DoubleValue
2.206

@<SCITEGIC>MOL_PROPERTY
Idih
SciTegic.value.DoubleValue
0.000

@<SCITEGIC>MOL_PROPERTY
Tether
SciTegic.value.DoubleValue
0.000

@<TRIPOS>MOLECULE
guest-s13_vm2.mol2 : vm2 ligand conformer 15
          26          25           1
SMALL
USER_CHARGES
 
@<TRIPOS>ATOM
       1    C1      20.516427   18.410012   19.095920 C.3        1 MOL1        -0.2398
       2    H1      19.769403   17.612476   18.990390 H          1 MOL1         0.0972
       3    H2      20.206791   19.254154   18.466016 H          1 MOL1         0.0972
       4    H3      21.470563   18.031774   18.706558 H          1 MOL1         0.0972
       5    C2      20.662258   18.841371   20.570717 C.3        1 MOL1        -0.1383
       6    H4      21.435667   19.618303   20.647665 H          1 MOL1         0.0961
       7    H5      21.013000   17.982805   21.158158 H          1 MOL1         0.0961
       8    C3      19.327074   19.374194   21.142886 C.3        1 MOL1        -0.1407
       9    H6      18.954418   20.173334   20.487191 H          1 MOL1         0.0961
      10    H7      18.569328   18.578866   21.119097 H          1 MOL1         0.0961
      11    C4      19.444489   19.937799   22.580844 C.3        1 MOL1        -0.1407
      12    H8      18.491389   20.421522   22.829854 H          1 MOL1         0.0961
      13    H9      20.208250   20.727354   22.604935 H          1 MOL1         0.0961
      14    C5      19.773101   18.858187   23.645029 C.3        1 MOL1        -0.1472
      15    H10     19.003390   18.075249   23.628873 H          1 MOL1         0.0961
      16    H11     20.718981   18.370963   23.379732 H          1 MOL1         0.0961
      17    C6      19.913248   19.419509   25.079015 C.3        1 MOL1         0.1190
      18    H12     20.640032   20.237449   25.057854 H          1 MOL1         0.0923
      19    C7      18.580967   19.964550   25.625062 C.3        1 MOL1        -0.2463
      20    H13     17.798221   19.196152   25.601539 H          1 MOL1         0.0972
      21    H14     18.233777   20.827440   25.045536 H          1 MOL1         0.0972
      22    H15     18.697354   20.299025   26.663292 H          1 MOL1         0.0972
      23    N1      20.470435   18.382378   26.014526 N.4        1 MOL1        -0.5974
      24    H16     21.380235   18.036554   25.696299 H          1 MOL1         0.3625
      25    H17     20.602032   18.760799   26.956839 H          1 MOL1         0.3625
      26    H18     19.845528   17.575749   26.094327 H          1 MOL1         0.3625
@<TRIPOS>BOND
    1     1     2    1
    2     1     3    1
    3     1     4    1
    4     1     5    1
    5     5     6    1
    6     5     7    1
    7     5     8    1
    8     8     9    1
    9     8    10    1
   10     8    11    1
   11    11    12    1
   12    11    13    1
   13    11    14    1
   14    14    15    1
   15    14    16    1
   16    14    17    1
   17    17    18    1
   18    17    19    1
   19    19    20    1
   20    19    21    1
   21    19    22    1
   22    17    23    1
   23    23    24    1
   24    23    25    1
   25    23    26    1
@<TRIPOS>SUBSTRUCTURE
       1 MOL1            1 RESIDUE      1      MOL     
@<SCITEGIC>MOL_PROPERTY
VM2 Rank
SciTegic.value.IntegerValue
15

@<SCITEGIC>MOL_PROPERTY
Conf_Id
SciTegic.value.IntegerValue
848

@<SCITEGIC>MOL_PROPERTY
Probability
SciTegic.value.DoubleValue
2.26

@<SCITEGIC>MOL_PROPERTY
Sum Probability
SciTegic.value.DoubleValue
77.87

@<SCITEGIC>MOL_PROPERTY
Delta G
SciTegic.value.DoubleValue
1.203

@<SCITEGIC>MOL_PROPERTY
G
SciTegic.value.DoubleValue
24.913

@<SCITEGIC>MOL_PROPERTY
E
SciTegic.value.DoubleValue
-7.676

@<SCITEGIC>MOL_PROPERTY
-TS
SciTegic.value.DoubleValue
32.589

@<SCITEGIC>MOL_PROPERTY
U+W
SciTegic.value.DoubleValue
-29.138

@<SCITEGIC>MOL_PROPERTY
U
SciTegic.value.DoubleValue
24.912

@<SCITEGIC>MOL_PROPERTY
W
SciTegic.value.DoubleValue
-54.050

@<SCITEGIC>MOL_PROPERTY
W(PB)
SciTegic.value.DoubleValue
-56.344

@<SCITEGIC>MOL_PROPERTY
W(SA)
SciTegic.value.DoubleValue
2.294

@<SCITEGIC>MOL_PROPERTY
Valence
SciTegic.value.DoubleValue
3.916

@<SCITEGIC>MOL_PROPERTY
Coulomb
SciTegic.value.DoubleValue
19.768

@<SCITEGIC>MOL_PROPERTY
VdW
SciTegic.value.DoubleValue
1.228

@<SCITEGIC>MOL_PROPERTY
VdW6
SciTegic.value.DoubleValue
-7.563

@<SCITEGIC>MOL_PROPERTY
VdW12
SciTegic.value.DoubleValue
8.791

@<SCITEGIC>MOL_PROPERTY
Bond
SciTegic.value.DoubleValue
0.234

@<SCITEGIC>MOL_PROPERTY
Angle
SciTegic.value.DoubleValue
1.481

@<SCITEGIC>MOL_PROPERTY
Pdih
SciTegic.value.DoubleValue
2.202

@<SCITEGIC>MOL_PROPERTY
Idih
SciTegic.value.DoubleValue
0.000

@<SCITEGIC>MOL_PROPERTY
Tether
SciTegic.value.DoubleValue
0.000

@<TRIPOS>MOLECULE
guest-s13_vm2.mol2 : vm2 ligand conformer 16
          26          25           1
SMALL
USER_CHARGES
 
@<TRIPOS>ATOM
       1    C1      20.288005   19.120770   19.036965 C.3        1 MOL1        -0.2398
       2    H1      19.918401   18.161427   18.651904 H          1 MOL1         0.0972
       3    H2      19.935509   19.912299   18.362975 H          1 MOL1         0.0972
       4    H3      21.384948   19.106261   18.995254 H          1 MOL1         0.0972
       5    C2      19.791262   19.369878   20.476909 C.3        1 MOL1        -0.1383
       6    H4      18.692990   19.408353   20.481556 H          1 MOL1         0.0961
       7    H5      20.146266   20.353974   20.810315 H          1 MOL1         0.0961
       8    C3      20.279797   18.268169   21.446926 C.3        1 MOL1        -0.1407
       9    H6      19.982715   17.287245   21.050804 H          1 MOL1         0.0961
      10    H7      21.377986   18.265831   21.482084 H          1 MOL1         0.0961
      11    C4      19.713935   18.409309   22.881465 C.3        1 MOL1        -0.1407
      12    H8      20.016329   17.524135   23.456053 H          1 MOL1         0.0961
      13    H9      18.616927   18.390841   22.837191 H          1 MOL1         0.0961
      14    C5      20.198493   19.692253   23.610710 C.3        1 MOL1        -0.1472
      15    H10     21.293201   19.750267   23.551477 H          1 MOL1         0.0961
      16    H11     19.818664   20.579659   23.089321 H          1 MOL1         0.0961
      17    C6      19.782599   19.790079   25.097653 C.3        1 MOL1         0.1190
      18    H12     20.192543   20.726538   25.488581 H          1 MOL1         0.0923
      19    C7      18.254248   19.844335   25.267346 C.3        1 MOL1        -0.2463
      20    H13     17.822085   20.645014   24.654396 H          1 MOL1         0.0972
      21    H14     17.991307   20.047210   26.312752 H          1 MOL1         0.0972
      22    H15     17.780712   18.897859   24.980522 H          1 MOL1         0.0972
      23    N1      20.379662   18.693206   25.936026 N.4        1 MOL1        -0.5974
      24    H16     21.400810   18.677446   25.862115 H          1 MOL1         0.3625
      25    H17     20.146828   18.810344   26.926213 H          1 MOL1         0.3625
      26    H18     20.035457   17.774452   25.646932 H          1 MOL1         0.3625
@<TRIPOS>BOND
    1     1     2    1
    2     1     3    1
    3     1     4    1
    4     1     5    1
    5     5     6    1
    6     5     7    1
    7     5     8    1
    8     8     9    1
    9     8    10    1
   10     8    11    1
   11    11    12    1
   12    11    13    1
   13    11    14    1
   14    14    15    1
   15    14    16    1
   16    14    17    1
   17    17    18    1
   18    17    19    1
   19    19    20    1
   20    19    21    1
   21    19    22    1
   22    17    23    1
   23    23    24    1
   24    23    25    1
   25    23    26    1
@<TRIPOS>SUBSTRUCTURE
       1 MOL1            1 RESIDUE      1      MOL     
@<SCITEGIC>MOL_PROPERTY
VM2 Rank
SciTegic.value.IntegerValue
16

@<SCITEGIC>MOL_PROPERTY
Conf_Id
SciTegic.value.IntegerValue
163

@<SCITEGIC>MOL_PROPERTY
Probability
SciTegic.value.DoubleValue
1.94

@<SCITEGIC>MOL_PROPERTY
Sum Probability
SciTegic.value.DoubleValue
79.81

@<SCITEGIC>MOL_PROPERTY
Delta G
SciTegic.value.DoubleValue
1.295

@<SCITEGIC>MOL_PROPERTY
G
SciTegic.value.DoubleValue
25.005

@<SCITEGIC>MOL_PROPERTY
E
SciTegic.value.DoubleValue
-7.804

@<SCITEGIC>MOL_PROPERTY
-TS
SciTegic.value.DoubleValue
32.809

@<SCITEGIC>MOL_PROPERTY
U+W
SciTegic.value.DoubleValue
-29.265

@<SCITEGIC>MOL_PROPERTY
U
SciTegic.value.DoubleValue
24.725

@<SCITEGIC>MOL_PROPERTY
W
SciTegic.value.DoubleValue
-53.991

@<SCITEGIC>MOL_PROPERTY
W(PB)
SciTegic.value.DoubleValue
-56.300

@<SCITEGIC>MOL_PROPERTY
W(SA)
SciTegic.value.DoubleValue
2.309

@<SCITEGIC>MOL_PROPERTY
Valence
SciTegic.value.DoubleValue
3.779

@<SCITEGIC>MOL_PROPERTY
Coulomb
SciTegic.value.DoubleValue
19.804

@<SCITEGIC>MOL_PROPERTY
VdW
SciTegic.value.DoubleValue
1.142

@<SCITEGIC>MOL_PROPERTY
VdW6
SciTegic.value.DoubleValue
-8.104

@<SCITEGIC>MOL_PROPERTY
VdW12
SciTegic.value.DoubleValue
9.246

@<SCITEGIC>MOL_PROPERTY
Bond
SciTegic.value.DoubleValue
0.254

@<SCITEGIC>MOL_PROPERTY
Angle
SciTegic.value.DoubleValue
1.437

@<SCITEGIC>MOL_PROPERTY
Pdih
SciTegic.value.DoubleValue
2.089

@<SCITEGIC>MOL_PROPERTY
Idih
SciTegic.value.DoubleValue
0.000

@<SCITEGIC>MOL_PROPERTY
Tether
SciTegic.value.DoubleValue
0.000

@<TRIPOS>MOLECULE
guest-s13_vm2.mol2 : vm2 ligand conformer 17
          26          25           1
SMALL
USER_CHARGES
 
@<TRIPOS>ATOM
       1    C1      20.194053   20.042735   19.906810 C.3        1 MOL1        -0.2398
       2    H1      21.223029   19.915196   19.546396 H          1 MOL1         0.0972
       3    H2      19.609502   20.501949   19.099174 H          1 MOL1         0.0972
       4    H3      20.208286   20.748643   20.746538 H          1 MOL1         0.0972
       5    C2      19.577527   18.686484   20.317624 C.3        1 MOL1        -0.1383
       6    H4      19.473960   18.059473   19.421062 H          1 MOL1         0.0961
       7    H5      18.557353   18.841261   20.693334 H          1 MOL1         0.0961
       8    C3      20.423706   17.914957   21.362519 C.3        1 MOL1        -0.1407
       9    H6      19.929709   16.958131   21.580773 H          1 MOL1         0.0961
      10    H7      21.391765   17.656570   20.911628 H          1 MOL1         0.0961
      11    C4      20.682417   18.664377   22.695432 C.3        1 MOL1        -0.1407
      12    H8      21.269245   19.572980   22.505733 H          1 MOL1         0.0961
      13    H9      21.313097   18.023026   23.324734 H          1 MOL1         0.0961
      14    C5      19.385505   19.029288   23.462537 C.3        1 MOL1        -0.1472
      15    H10     18.771103   19.690354   22.838716 H          1 MOL1         0.0961
      16    H11     18.791820   18.123122   23.641597 H          1 MOL1         0.0961
      17    C6      19.659937   19.744409   24.803478 C.3        1 MOL1         0.1190
      18    H12     20.282830   20.621615   24.602947 H          1 MOL1         0.0923
      19    C7      18.341776   20.222895   25.433113 C.3        1 MOL1        -0.2463
      20    H13     17.811757   20.905582   24.757280 H          1 MOL1         0.0972
      21    H14     18.531846   20.762947   26.368842 H          1 MOL1         0.0972
      22    H15     17.677922   19.377871   25.654797 H          1 MOL1         0.0972
      23    N1      20.423079   18.882855   25.772486 N.4        1 MOL1        -0.5974
      24    H16     21.325735   18.594056   25.386392 H          1 MOL1         0.3625
      25    H17     20.610019   19.379790   26.647972 H          1 MOL1         0.3625
      26    H18     19.902201   18.033872   26.007387 H          1 MOL1         0.3625
@<TRIPOS>BOND
    1     1     2    1
    2     1     3    1
    3     1     4    1
    4     1     5    1
    5     5     6    1
    6     5     7    1
    7     5     8    1
    8     8     9    1
    9     8    10    1
   10     8    11    1
   11    11    12    1
   12    11    13    1
   13    11    14    1
   14    14    15    1
   15    14    16    1
   16    14    17    1
   17    17    18    1
   18    17    19    1
   19    19    20    1
   20    19    21    1
   21    19    22    1
   22    17    23    1
   23    23    24    1
   24    23    25    1
   25    23    26    1
@<TRIPOS>SUBSTRUCTURE
       1 MOL1            1 RESIDUE      1      MOL     
@<SCITEGIC>MOL_PROPERTY
VM2 Rank
SciTegic.value.IntegerValue
17

@<SCITEGIC>MOL_PROPERTY
Conf_Id
SciTegic.value.IntegerValue
879

@<SCITEGIC>MOL_PROPERTY
Probability
SciTegic.value.DoubleValue
1.91

@<SCITEGIC>MOL_PROPERTY
Sum Probability
SciTegic.value.DoubleValue
81.71

@<SCITEGIC>MOL_PROPERTY
Delta G
SciTegic.value.DoubleValue
1.306

@<SCITEGIC>MOL_PROPERTY
G
SciTegic.value.DoubleValue
25.016

@<SCITEGIC>MOL_PROPERTY
E
SciTegic.value.DoubleValue
-7.959

@<SCITEGIC>MOL_PROPERTY
-TS
SciTegic.value.DoubleValue
32.975

@<SCITEGIC>MOL_PROPERTY
U+W
SciTegic.value.DoubleValue
-29.421

@<SCITEGIC>MOL_PROPERTY
U
SciTegic.value.DoubleValue
24.692

@<SCITEGIC>MOL_PROPERTY
W
SciTegic.value.DoubleValue
-54.113

@<SCITEGIC>MOL_PROPERTY
W(PB)
SciTegic.value.DoubleValue
-56.398

@<SCITEGIC>MOL_PROPERTY
W(SA)
SciTegic.value.DoubleValue
2.285

@<SCITEGIC>MOL_PROPERTY
Valence
SciTegic.value.DoubleValue
3.726

@<SCITEGIC>MOL_PROPERTY
Coulomb
SciTegic.value.DoubleValue
19.918

@<SCITEGIC>MOL_PROPERTY
VdW
SciTegic.value.DoubleValue
1.047

@<SCITEGIC>MOL_PROPERTY
VdW6
SciTegic.value.DoubleValue
-8.393

@<SCITEGIC>MOL_PROPERTY
VdW12
SciTegic.value.DoubleValue
9.440

@<SCITEGIC>MOL_PROPERTY
Bond
SciTegic.value.DoubleValue
0.259

@<SCITEGIC>MOL_PROPERTY
Angle
SciTegic.value.DoubleValue
1.567

@<SCITEGIC>MOL_PROPERTY
Pdih
SciTegic.value.DoubleValue
1.900

@<SCITEGIC>MOL_PROPERTY
Idih
SciTegic.value.DoubleValue
0.000

@<SCITEGIC>MOL_PROPERTY
Tether
SciTegic.value.DoubleValue
0.000

@<TRIPOS>MOLECULE
guest-s13_vm2.mol2 : vm2 ligand conformer 18
          26          25           1
SMALL
USER_CHARGES
 
@<TRIPOS>ATOM
       1    C1      20.667154   19.850206   19.671761 C.3        1 MOL1        -0.2398
       2    H1      21.100866   19.040934   19.069943 H          1 MOL1         0.0972
       3    H2      20.112593   20.513003   18.994868 H          1 MOL1         0.0972
       4    H3      21.490337   20.428964   20.110655 H          1 MOL1         0.0972
       5    C2      19.737108   19.289617   20.768409 C.3        1 MOL1        -0.1383
       6    H4      18.908109   18.742122   20.298606 H          1 MOL1         0.0961
       7    H5      19.292791   20.128139   21.321035 H          1 MOL1         0.0961
       8    C3      20.497770   18.354159   21.737372 C.3        1 MOL1        -0.1407
       9    H6      20.991867   17.563829   21.155453 H          1 MOL1         0.0961
      10    H7      21.303268   18.912123   22.232963 H          1 MOL1         0.0961
      11    C4      19.584125   17.682801   22.795342 C.3        1 MOL1        -0.1407
      12    H8      20.190378   17.001310   23.407066 H          1 MOL1         0.0961
      13    H9      18.851260   17.045456   22.281621 H          1 MOL1         0.0961
      14    C5      18.823654   18.668455   23.722394 C.3        1 MOL1        -0.1472
      15    H10     18.080333   19.218319   23.131030 H          1 MOL1         0.0961
      16    H11     18.251340   18.092678   24.461793 H          1 MOL1         0.0961
      17    C6      19.735799   19.677105   24.455243 C.3        1 MOL1         0.1190
      18    H12     20.295616   20.242809   23.704437 H          1 MOL1         0.0923
      19    C7      18.891374   20.668633   25.271098 C.3        1 MOL1        -0.2463
      20    H13     18.309337   20.152202   26.044663 H          1 MOL1         0.0972
      21    H14     18.192249   21.210877   24.622333 H          1 MOL1         0.0972
      22    H15     19.531900   21.410618   25.763571 H          1 MOL1         0.0972
      23    N1      20.751015   18.997025   25.332381 N.4        1 MOL1        -0.5974
      24    H16     20.299500   18.450664   26.070508 H          1 MOL1         0.3625
      25    H17     21.339984   18.357805   24.791997 H          1 MOL1         0.3625
      26    H18     21.368682   19.675392   25.786934 H          1 MOL1         0.3625
@<TRIPOS>BOND
    1     1     2    1
    2     1     3    1
    3     1     4    1
    4     1     5    1
    5     5     6    1
    6     5     7    1
    7     5     8    1
    8     8     9    1
    9     8    10    1
   10     8    11    1
   11    11    12    1
   12    11    13    1
   13    11    14    1
   14    14    15    1
   15    14    16    1
   16    14    17    1
   17    17    18    1
   18    17    19    1
   19    19    20    1
   20    19    21    1
   21    19    22    1
   22    17    23    1
   23    23    24    1
   24    23    25    1
   25    23    26    1
@<TRIPOS>SUBSTRUCTURE
       1 MOL1            1 RESIDUE      1      MOL     
@<SCITEGIC>MOL_PROPERTY
VM2 Rank
SciTegic.value.IntegerValue
18

@<SCITEGIC>MOL_PROPERTY
Conf_Id
SciTegic.value.IntegerValue
441

@<SCITEGIC>MOL_PROPERTY
Probability
SciTegic.value.DoubleValue
1.87

@<SCITEGIC>MOL_PROPERTY
Sum Probability
SciTegic.value.DoubleValue
83.58

@<SCITEGIC>MOL_PROPERTY
Delta G
SciTegic.value.DoubleValue
1.318

@<SCITEGIC>MOL_PROPERTY
G
SciTegic.value.DoubleValue
25.028

@<SCITEGIC>MOL_PROPERTY
E
SciTegic.value.DoubleValue
-7.992

@<SCITEGIC>MOL_PROPERTY
-TS
SciTegic.value.DoubleValue
33.020

@<SCITEGIC>MOL_PROPERTY
U+W
SciTegic.value.DoubleValue
-29.454

@<SCITEGIC>MOL_PROPERTY
U
SciTegic.value.DoubleValue
24.584

@<SCITEGIC>MOL_PROPERTY
W
SciTegic.value.DoubleValue
-54.038

@<SCITEGIC>MOL_PROPERTY
W(PB)
SciTegic.value.DoubleValue
-56.326

@<SCITEGIC>MOL_PROPERTY
W(SA)
SciTegic.value.DoubleValue
2.288

@<SCITEGIC>MOL_PROPERTY
Valence
SciTegic.value.DoubleValue
3.508

@<SCITEGIC>MOL_PROPERTY
Coulomb
SciTegic.value.DoubleValue
20.402

@<SCITEGIC>MOL_PROPERTY
VdW
SciTegic.value.DoubleValue
0.674

@<SCITEGIC>MOL_PROPERTY
VdW6
SciTegic.value.DoubleValue
-8.750

@<SCITEGIC>MOL_PROPERTY
VdW12
SciTegic.value.DoubleValue
9.423

@<SCITEGIC>MOL_PROPERTY
Bond
SciTegic.value.DoubleValue
0.246

@<SCITEGIC>MOL_PROPERTY
Angle
SciTegic.value.DoubleValue
1.409

@<SCITEGIC>MOL_PROPERTY
Pdih
SciTegic.value.DoubleValue
1.854

@<SCITEGIC>MOL_PROPERTY
Idih
SciTegic.value.DoubleValue
0.000

@<SCITEGIC>MOL_PROPERTY
Tether
SciTegic.value.DoubleValue
0.000

@<TRIPOS>MOLECULE
guest-s13_vm2.mol2 : vm2 ligand conformer 19
          26          25           1
SMALL
USER_CHARGES
 
@<TRIPOS>ATOM
       1    C1      20.582810   18.953713   19.088301 C.3        1 MOL1        -0.2398
       2    H1      21.579033   19.069530   18.642027 H          1 MOL1         0.0972
       3    H2      20.145030   18.025614   18.698175 H          1 MOL1         0.0972
       4    H3      19.962028   19.793448   18.749607 H          1 MOL1         0.0972
       5    C2      20.676289   18.919338   20.628559 C.3        1 MOL1        -0.1383
       6    H4      21.155874   19.843882   20.975858 H          1 MOL1         0.0961
       7    H5      21.326199   18.087894   20.935149 H          1 MOL1         0.0961
       8    C3      19.282152   18.761075   21.280459 C.3        1 MOL1        -0.1407
       9    H6      18.650333   19.620912   21.018268 H          1 MOL1         0.0961
      10    H7      18.789164   17.876206   20.854581 H          1 MOL1         0.0961
      11    C4      19.329667   18.600920   22.820103 C.3        1 MOL1        -0.1407
      12    H8      19.957080   17.736185   23.073553 H          1 MOL1         0.0961
      13    H9      18.315803   18.360533   23.164924 H          1 MOL1         0.0961
      14    C5      19.842333   19.869119   23.556298 C.3        1 MOL1        -0.1472
      15    H10     20.867162   20.091932   23.235652 H          1 MOL1         0.0961
      16    H11     19.235915   20.733922   23.256392 H          1 MOL1         0.0961
      17    C6      19.839520   19.770883   25.100420 C.3        1 MOL1         0.1190
      18    H12     20.272088   20.699854   25.484781 H          1 MOL1         0.0923
      19    C7      18.416109   19.652019   25.673035 C.3        1 MOL1        -0.2463
      20    H13     17.952112   18.692945   25.414646 H          1 MOL1         0.0972
      21    H14     17.774868   20.457885   25.294979 H          1 MOL1         0.0972
      22    H15     18.436014   19.729201   26.767028 H          1 MOL1         0.0972
      23    N1      20.719118   18.660934   25.606824 N.4        1 MOL1        -0.5974
      24    H16     21.680289   18.758930   25.267801 H          1 MOL1         0.3625
      25    H17     20.755430   18.649497   26.630028 H          1 MOL1         0.3625
      26    H18     20.376132   17.746815   25.301781 H          1 MOL1         0.3625
@<TRIPOS>BOND
    1     1     2    1
    2     1     3    1
    3     1     4    1
    4     1     5    1
    5     5     6    1
    6     5     7    1
    7     5     8    1
    8     8     9    1
    9     8    10    1
   10     8    11    1
   11    11    12    1
   12    11    13    1
   13    11    14    1
   14    14    15    1
   15    14    16    1
   16    14    17    1
   17    17    18    1
   18    17    19    1
   19    19    20    1
   20    19    21    1
   21    19    22    1
   22    17    23    1
   23    23    24    1
   24    23    25    1
   25    23    26    1
@<TRIPOS>SUBSTRUCTURE
       1 MOL1            1 RESIDUE      1      MOL     
@<SCITEGIC>MOL_PROPERTY
VM2 Rank
SciTegic.value.IntegerValue
19

@<SCITEGIC>MOL_PROPERTY
Conf_Id
SciTegic.value.IntegerValue
197

@<SCITEGIC>MOL_PROPERTY
Probability
SciTegic.value.DoubleValue
1.86

@<SCITEGIC>MOL_PROPERTY
Sum Probability
SciTegic.value.DoubleValue
85.44

@<SCITEGIC>MOL_PROPERTY
Delta G
SciTegic.value.DoubleValue
1.320

@<SCITEGIC>MOL_PROPERTY
G
SciTegic.value.DoubleValue
25.030

@<SCITEGIC>MOL_PROPERTY
E
SciTegic.value.DoubleValue
-7.728

@<SCITEGIC>MOL_PROPERTY
-TS
SciTegic.value.DoubleValue
32.758

@<SCITEGIC>MOL_PROPERTY
U+W
SciTegic.value.DoubleValue
-29.190

@<SCITEGIC>MOL_PROPERTY
U
SciTegic.value.DoubleValue
24.990

@<SCITEGIC>MOL_PROPERTY
W
SciTegic.value.DoubleValue
-54.180

@<SCITEGIC>MOL_PROPERTY
W(PB)
SciTegic.value.DoubleValue
-56.459

@<SCITEGIC>MOL_PROPERTY
W(SA)
SciTegic.value.DoubleValue
2.279

@<SCITEGIC>MOL_PROPERTY
Valence
SciTegic.value.DoubleValue
3.862

@<SCITEGIC>MOL_PROPERTY
Coulomb
SciTegic.value.DoubleValue
19.956

@<SCITEGIC>MOL_PROPERTY
VdW
SciTegic.value.DoubleValue
1.172

@<SCITEGIC>MOL_PROPERTY
VdW6
SciTegic.value.DoubleValue
-8.054

@<SCITEGIC>MOL_PROPERTY
VdW12
SciTegic.value.DoubleValue
9.225

@<SCITEGIC>MOL_PROPERTY
Bond
SciTegic.value.DoubleValue
0.258

@<SCITEGIC>MOL_PROPERTY
Angle
SciTegic.value.DoubleValue
1.499

@<SCITEGIC>MOL_PROPERTY
Pdih
SciTegic.value.DoubleValue
2.106

@<SCITEGIC>MOL_PROPERTY
Idih
SciTegic.value.DoubleValue
0.000

@<SCITEGIC>MOL_PROPERTY
Tether
SciTegic.value.DoubleValue
0.000

@<TRIPOS>MOLECULE
guest-s13_vm2.mol2 : vm2 ligand conformer 20
          26          25           1
SMALL
USER_CHARGES
 
@<TRIPOS>ATOM
       1    C1      20.294582   17.642447   20.325400 C.3        1 MOL1        -0.2398
       2    H1      20.333824   17.206175   21.331193 H          1 MOL1         0.0972
       3    H2      19.745877   16.941895   19.682756 H          1 MOL1         0.0972
       4    H3      21.320419   17.717298   19.941991 H          1 MOL1         0.0972
       5    C2      19.602805   19.024380   20.334046 C.3        1 MOL1        -0.1383
       6    H4      18.587179   18.927851   20.740598 H          1 MOL1         0.0961
       7    H5      19.479533   19.364536   19.296369 H          1 MOL1         0.0961
       8    C3      20.392783   20.104563   21.116169 C.3        1 MOL1        -0.1407
       9    H6      21.357808   20.269468   20.617455 H          1 MOL1         0.0961
      10    H7      19.851954   21.058388   21.046182 H          1 MOL1         0.0961
      11    C4      20.653607   19.780633   22.609826 C.3        1 MOL1        -0.1407
      12    H8      21.226439   20.609561   23.048211 H          1 MOL1         0.0961
      13    H9      21.295695   18.893948   22.686010 H          1 MOL1         0.0961
      14    C5      19.355256   19.575676   23.431203 C.3        1 MOL1        -0.1472
      15    H10     18.690199   20.433249   23.263620 H          1 MOL1         0.0961
      16    H11     18.819515   18.686611   23.074985 H          1 MOL1         0.0961
      17    C6      19.619876   19.438074   24.945991 C.3        1 MOL1         0.1190
      18    H12     20.169902   20.323378   25.279743 H          1 MOL1         0.0923
      19    C7      18.291777   19.376003   25.717289 C.3        1 MOL1        -0.2463
      20    H13     18.472559   19.315638   26.797582 H          1 MOL1         0.0972
      21    H14     17.700404   18.500862   25.420131 H          1 MOL1         0.0972
      22    H15     17.690155   20.274271   25.530514 H          1 MOL1         0.0972
      23    N1      20.477315   18.246224   25.274076 N.4        1 MOL1        -0.5974
      24    H16     21.383209   18.295940   24.800518 H          1 MOL1         0.3625
      25    H17     20.660631   18.182849   26.279458 H          1 MOL1         0.3625
      26    H18     20.027018   17.372664   24.988973 H          1 MOL1         0.3625
@<TRIPOS>BOND
    1     1     2    1
    2     1     3    1
    3     1     4    1
    4     1     5    1
    5     5     6    1
    6     5     7    1
    7     5     8    1
    8     8     9    1
    9     8    10    1
   10     8    11    1
   11    11    12    1
   12    11    13    1
   13    11    14    1
   14    14    15    1
   15    14    16    1
   16    14    17    1
   17    17    18    1
   18    17    19    1
   19    19    20    1
   20    19    21    1
   21    19    22    1
   22    17    23    1
   23    23    24    1
   24    23    25    1
   25    23    26    1
@<TRIPOS>SUBSTRUCTURE
       1 MOL1            1 RESIDUE      1      MOL     
@<SCITEGIC>MOL_PROPERTY
VM2 Rank
SciTegic.value.IntegerValue
20

@<SCITEGIC>MOL_PROPERTY
Conf_Id
SciTegic.value.IntegerValue
198

@<SCITEGIC>MOL_PROPERTY
Probability
SciTegic.value.DoubleValue
1.63

@<SCITEGIC>MOL_PROPERTY
Sum Probability
SciTegic.value.DoubleValue
87.07

@<SCITEGIC>MOL_PROPERTY
Delta G
SciTegic.value.DoubleValue
1.401

@<SCITEGIC>MOL_PROPERTY
G
SciTegic.value.DoubleValue
25.111

@<SCITEGIC>MOL_PROPERTY
E
SciTegic.value.DoubleValue
-7.885

@<SCITEGIC>MOL_PROPERTY
-TS
SciTegic.value.DoubleValue
32.996

@<SCITEGIC>MOL_PROPERTY
U+W
SciTegic.value.DoubleValue
-29.347

@<SCITEGIC>MOL_PROPERTY
U
SciTegic.value.DoubleValue
24.852

@<SCITEGIC>MOL_PROPERTY
W
SciTegic.value.DoubleValue
-54.199

@<SCITEGIC>MOL_PROPERTY
W(PB)
SciTegic.value.DoubleValue
-56.471

@<SCITEGIC>MOL_PROPERTY
W(SA)
SciTegic.value.DoubleValue
2.273

@<SCITEGIC>MOL_PROPERTY
Valence
SciTegic.value.DoubleValue
3.679

@<SCITEGIC>MOL_PROPERTY
Coulomb
SciTegic.value.DoubleValue
20.236

@<SCITEGIC>MOL_PROPERTY
VdW
SciTegic.value.DoubleValue
0.936

@<SCITEGIC>MOL_PROPERTY
VdW6
SciTegic.value.DoubleValue
-8.465

@<SCITEGIC>MOL_PROPERTY
VdW12
SciTegic.value.DoubleValue
9.402

@<SCITEGIC>MOL_PROPERTY
Bond
SciTegic.value.DoubleValue
0.251

@<SCITEGIC>MOL_PROPERTY
Angle
SciTegic.value.DoubleValue
1.471

@<SCITEGIC>MOL_PROPERTY
Pdih
SciTegic.value.DoubleValue
1.958

@<SCITEGIC>MOL_PROPERTY
Idih
SciTegic.value.DoubleValue
0.000

@<SCITEGIC>MOL_PROPERTY
Tether
SciTegic.value.DoubleValue
0.000

@<TRIPOS>MOLECULE
guest-s13_vm2.mol2 : vm2 ligand conformer 21
          26          25           1
SMALL
USER_CHARGES
 
@<TRIPOS>ATOM
       1    C1      19.466530   19.736455   19.671693 C.3        1 MOL1        -0.2398
       2    H1      19.518770   19.763627   18.575581 H          1 MOL1         0.0972
       3    H2      18.507063   19.279955   19.944589 H          1 MOL1         0.0972
       4    H3      19.470299   20.772783   20.033646 H          1 MOL1         0.0972
       5    C2      20.658852   18.941169   20.250217 C.3        1 MOL1        -0.1383
       6    H4      21.592466   19.363498   19.852982 H          1 MOL1         0.0961
       7    H5      20.616762   17.901618   19.896227 H          1 MOL1         0.0961
       8    C3      20.720427   18.966448   21.796313 C.3        1 MOL1        -0.1407
       9    H6      21.649758   18.475733   22.116956 H          1 MOL1         0.0961
      10    H7      20.786269   20.008712   22.135915 H          1 MOL1         0.0961
      11    C4      19.516888   18.260353   22.470074 C.3        1 MOL1        -0.1407
      12    H8      19.410691   17.251080   22.049220 H          1 MOL1         0.0961
      13    H9      18.584860   18.787438   22.230730 H          1 MOL1         0.0961
      14    C5      19.667239   18.138263   24.008454 C.3        1 MOL1        -0.1472
      15    H10     18.787308   17.621258   24.413647 H          1 MOL1         0.0961
      16    H11     20.526646   17.489255   24.222414 H          1 MOL1         0.0961
      17    C6      19.860900   19.479224   24.755342 C.3        1 MOL1         0.1190
      18    H12     20.743301   19.978654   24.344494 H          1 MOL1         0.0923
      19    C7      18.650282   20.414928   24.588218 C.3        1 MOL1        -0.2463
      20    H13     17.726883   19.934858   24.935295 H          1 MOL1         0.0972
      21    H14     18.513839   20.705457   23.539996 H          1 MOL1         0.0972
      22    H15     18.792014   21.337255   25.164814 H          1 MOL1         0.0972
      23    N1      20.146881   19.251160   26.213690 N.4        1 MOL1        -0.5974
      24    H16     20.975581   18.664945   26.348669 H          1 MOL1         0.3625
      25    H17     20.315516   20.133773   26.704587 H          1 MOL1         0.3625
      26    H18     19.363128   18.787436   26.680775 H          1 MOL1         0.3625
@<TRIPOS>BOND
    1     1     2    1
    2     1     3    1
    3     1     4    1
    4     1     5    1
    5     5     6    1
    6     5     7    1
    7     5     8    1
    8     8     9    1
    9     8    10    1
   10     8    11    1
   11    11    12    1
   12    11    13    1
   13    11    14    1
   14    14    15    1
   15    14    16    1
   16    14    17    1
   17    17    18    1
   18    17    19    1
   19    19    20    1
   20    19    21    1
   21    19    22    1
   22    17    23    1
   23    23    24    1
   24    23    25    1
   25    23    26    1
@<TRIPOS>SUBSTRUCTURE
       1 MOL1            1 RESIDUE      1      MOL     
@<SCITEGIC>MOL_PROPERTY
VM2 Rank
SciTegic.value.IntegerValue
21

@<SCITEGIC>MOL_PROPERTY
Conf_Id
SciTegic.value.IntegerValue
763

@<SCITEGIC>MOL_PROPERTY
Probability
SciTegic.value.DoubleValue
1.60

@<SCITEGIC>MOL_PROPERTY
Sum Probability
SciTegic.value.DoubleValue
88.67

@<SCITEGIC>MOL_PROPERTY
Delta G
SciTegic.value.DoubleValue
1.410

@<SCITEGIC>MOL_PROPERTY
G
SciTegic.value.DoubleValue
25.120

@<SCITEGIC>MOL_PROPERTY
E
SciTegic.value.DoubleValue
-7.847

@<SCITEGIC>MOL_PROPERTY
-TS
SciTegic.value.DoubleValue
32.967

@<SCITEGIC>MOL_PROPERTY
U+W
SciTegic.value.DoubleValue
-29.309

@<SCITEGIC>MOL_PROPERTY
U
SciTegic.value.DoubleValue
24.864

@<SCITEGIC>MOL_PROPERTY
W
SciTegic.value.DoubleValue
-54.173

@<SCITEGIC>MOL_PROPERTY
W(PB)
SciTegic.value.DoubleValue
-56.445

@<SCITEGIC>MOL_PROPERTY
W(SA)
SciTegic.value.DoubleValue
2.272

@<SCITEGIC>MOL_PROPERTY
Valence
SciTegic.value.DoubleValue
4.005

@<SCITEGIC>MOL_PROPERTY
Coulomb
SciTegic.value.DoubleValue
19.922

@<SCITEGIC>MOL_PROPERTY
VdW
SciTegic.value.DoubleValue
0.937

@<SCITEGIC>MOL_PROPERTY
VdW6
SciTegic.value.DoubleValue
-8.619

@<SCITEGIC>MOL_PROPERTY
VdW12
SciTegic.value.DoubleValue
9.556

@<SCITEGIC>MOL_PROPERTY
Bond
SciTegic.value.DoubleValue
0.248

@<SCITEGIC>MOL_PROPERTY
Angle
SciTegic.value.DoubleValue
1.606

@<SCITEGIC>MOL_PROPERTY
Pdih
SciTegic.value.DoubleValue
2.151

@<SCITEGIC>MOL_PROPERTY
Idih
SciTegic.value.DoubleValue
0.000

@<SCITEGIC>MOL_PROPERTY
Tether
SciTegic.value.DoubleValue
0.000

@<TRIPOS>MOLECULE
guest-s13_vm2.mol2 : vm2 ligand conformer 22
          26          25           1
SMALL
USER_CHARGES
 
@<TRIPOS>ATOM
       1    C1      20.115450   18.574067   19.346004 C.3        1 MOL1        -0.2398
       2    H1      19.347122   19.302014   19.054829 H          1 MOL1         0.0972
       3    H2      20.712346   18.341762   18.454553 H          1 MOL1         0.0972
       4    H3      19.613799   17.649109   19.655935 H          1 MOL1         0.0972
       5    C2      21.017126   19.136264   20.468465 C.3        1 MOL1        -0.1383
       6    H4      21.591800   19.983163   20.068030 H          1 MOL1         0.0961
       7    H5      21.754835   18.377670   20.765152 H          1 MOL1         0.0961
       8    C3      20.229371   19.616013   21.711543 C.3        1 MOL1        -0.1407
       9    H6      20.935177   20.112586   22.390072 H          1 MOL1         0.0961
      10    H7      19.500277   20.380682   21.410022 H          1 MOL1         0.0961
      11    C4      19.504134   18.469794   22.461567 C.3        1 MOL1        -0.1407
      12    H8      20.226437   17.690602   22.738652 H          1 MOL1         0.0961
      13    H9      18.783412   17.989747   21.787051 H          1 MOL1         0.0961
      14    C5      18.734510   18.952524   23.718110 C.3        1 MOL1        -0.1472
      15    H10     17.958440   19.663569   23.404903 H          1 MOL1         0.0961
      16    H11     18.205830   18.098750   24.162461 H          1 MOL1         0.0961
      17    C6      19.622178   19.617778   24.794138 C.3        1 MOL1         0.1190
      18    H12     20.121810   20.480797   24.344519 H          1 MOL1         0.0923
      19    C7      18.759522   20.120781   25.962471 C.3        1 MOL1        -0.2463
      20    H13     18.006734   20.837202   25.610659 H          1 MOL1         0.0972
      21    H14     19.378799   20.629736   26.711346 H          1 MOL1         0.0972
      22    H15     18.237610   19.291835   26.456778 H          1 MOL1         0.0972
      23    N1      20.705709   18.700778   25.291703 N.4        1 MOL1        -0.5974
      24    H16     21.300123   19.164099   25.984776 H          1 MOL1         0.3625
      25    H17     20.313441   17.865215   25.733505 H          1 MOL1         0.3625
      26    H18     21.310238   18.390529   24.526238 H          1 MOL1         0.3625
@<TRIPOS>BOND
    1     1     2    1
    2     1     3    1
    3     1     4    1
    4     1     5    1
    5     5     6    1
    6     5     7    1
    7     5     8    1
    8     8     9    1
    9     8    10    1
   10     8    11    1
   11    11    12    1
   12    11    13    1
   13    11    14    1
   14    14    15    1
   15    14    16    1
   16    14    17    1
   17    17    18    1
   18    17    19    1
   19    19    20    1
   20    19    21    1
   21    19    22    1
   22    17    23    1
   23    23    24    1
   24    23    25    1
   25    23    26    1
@<TRIPOS>SUBSTRUCTURE
       1 MOL1            1 RESIDUE      1      MOL     
@<SCITEGIC>MOL_PROPERTY
VM2 Rank
SciTegic.value.IntegerValue
22

@<SCITEGIC>MOL_PROPERTY
Conf_Id
SciTegic.value.IntegerValue
239

@<SCITEGIC>MOL_PROPERTY
Probability
SciTegic.value.DoubleValue
1.59

@<SCITEGIC>MOL_PROPERTY
Sum Probability
SciTegic.value.DoubleValue
90.26

@<SCITEGIC>MOL_PROPERTY
Delta G
SciTegic.value.DoubleValue
1.415

@<SCITEGIC>MOL_PROPERTY
G
SciTegic.value.DoubleValue
25.125

@<SCITEGIC>MOL_PROPERTY
E
SciTegic.value.DoubleValue
-7.706

@<SCITEGIC>MOL_PROPERTY
-TS
SciTegic.value.DoubleValue
32.831

@<SCITEGIC>MOL_PROPERTY
U+W
SciTegic.value.DoubleValue
-29.168

@<SCITEGIC>MOL_PROPERTY
U
SciTegic.value.DoubleValue
24.833

@<SCITEGIC>MOL_PROPERTY
W
SciTegic.value.DoubleValue
-54.001

@<SCITEGIC>MOL_PROPERTY
W(PB)
SciTegic.value.DoubleValue
-56.294

@<SCITEGIC>MOL_PROPERTY
W(SA)
SciTegic.value.DoubleValue
2.294

@<SCITEGIC>MOL_PROPERTY
Valence
SciTegic.value.DoubleValue
3.589

@<SCITEGIC>MOL_PROPERTY
Coulomb
SciTegic.value.DoubleValue
20.270

@<SCITEGIC>MOL_PROPERTY
VdW
SciTegic.value.DoubleValue
0.974

@<SCITEGIC>MOL_PROPERTY
VdW6
SciTegic.value.DoubleValue
-8.254

@<SCITEGIC>MOL_PROPERTY
VdW12
SciTegic.value.DoubleValue
9.228

@<SCITEGIC>MOL_PROPERTY
Bond
SciTegic.value.DoubleValue
0.244

@<SCITEGIC>MOL_PROPERTY
Angle
SciTegic.value.DoubleValue
1.377

@<SCITEGIC>MOL_PROPERTY
Pdih
SciTegic.value.DoubleValue
1.968

@<SCITEGIC>MOL_PROPERTY
Idih
SciTegic.value.DoubleValue
0.000

@<SCITEGIC>MOL_PROPERTY
Tether
SciTegic.value.DoubleValue
0.000

@<TRIPOS>MOLECULE
guest-s13_vm2.mol2 : vm2 ligand conformer 23
          26          25           1
SMALL
USER_CHARGES
 
@<TRIPOS>ATOM
       1    C1      21.241167   18.195497   20.074123 C.3        1 MOL1        -0.2398
       2    H1      22.152541   18.416347   20.644707 H          1 MOL1         0.0972
       3    H2      20.810656   17.262927   20.459342 H          1 MOL1         0.0972
       4    H3      21.533578   18.017142   19.031231 H          1 MOL1         0.0972
       5    C2      20.233894   19.364594   20.160350 C.3        1 MOL1        -0.1383
       6    H4      19.321195   19.108243   19.604449 H          1 MOL1         0.0961
       7    H5      20.664638   20.241059   19.656290 H          1 MOL1         0.0961
       8    C3      19.870555   19.755665   21.612868 C.3        1 MOL1        -0.1407
       9    H6      20.787356   20.032755   22.149958 H          1 MOL1         0.0961
      10    H7      19.243182   20.657287   21.584816 H          1 MOL1         0.0961
      11    C4      19.116526   18.639110   22.378436 C.3        1 MOL1        -0.1407
      12    H8      19.757630   17.755499   22.488901 H          1 MOL1         0.0961
      13    H9      18.252298   18.315576   21.782157 H          1 MOL1         0.0961
      14    C5      18.610963   19.092736   23.771895 C.3        1 MOL1        -0.1472
      15    H10     17.884918   19.905532   23.637096 H          1 MOL1         0.0961
      16    H11     18.061166   18.265507   24.240163 H          1 MOL1         0.0961
      17    C6      19.728780   19.569557   24.726380 C.3        1 MOL1         0.1190
      18    H12     20.250995   20.406869   24.254080 H          1 MOL1         0.0923
      19    C7      19.126190   20.066693   26.049944 C.3        1 MOL1        -0.2463
      20    H13     18.418610   20.886150   25.872365 H          1 MOL1         0.0972
      21    H14     19.911460   20.443758   26.716669 H          1 MOL1         0.0972
      22    H15     18.592930   19.261645   26.570913 H          1 MOL1         0.0972
      23    N1      20.759924   18.504148   24.980005 N.4        1 MOL1        -0.5974
      24    H16     21.507336   18.843872   25.591843 H          1 MOL1         0.3625
      25    H17     20.345260   17.683303   25.428928 H          1 MOL1         0.3625
      26    H18     21.194157   18.192819   24.106935 H          1 MOL1         0.3625
@<TRIPOS>BOND
    1     1     2    1
    2     1     3    1
    3     1     4    1
    4     1     5    1
    5     5     6    1
    6     5     7    1
    7     5     8    1
    8     8     9    1
    9     8    10    1
   10     8    11    1
   11    11    12    1
   12    11    13    1
   13    11    14    1
   14    14    15    1
   15    14    16    1
   16    14    17    1
   17    17    18    1
   18    17    19    1
   19    19    20    1
   20    19    21    1
   21    19    22    1
   22    17    23    1
   23    23    24    1
   24    23    25    1
   25    23    26    1
@<TRIPOS>SUBSTRUCTURE
       1 MOL1            1 RESIDUE      1      MOL     
@<SCITEGIC>MOL_PROPERTY
VM2 Rank
SciTegic.value.IntegerValue
23

@<SCITEGIC>MOL_PROPERTY
Conf_Id
SciTegic.value.IntegerValue
531

@<SCITEGIC>MOL_PROPERTY
Probability
SciTegic.value.DoubleValue
1.46

@<SCITEGIC>MOL_PROPERTY
Sum Probability
SciTegic.value.DoubleValue
91.72

@<SCITEGIC>MOL_PROPERTY
Delta G
SciTegic.value.DoubleValue
1.465

@<SCITEGIC>MOL_PROPERTY
G
SciTegic.value.DoubleValue
25.175

@<SCITEGIC>MOL_PROPERTY
E
SciTegic.value.DoubleValue
-7.697

@<SCITEGIC>MOL_PROPERTY
-TS
SciTegic.value.DoubleValue
32.872

@<SCITEGIC>MOL_PROPERTY
U+W
SciTegic.value.DoubleValue
-29.159

@<SCITEGIC>MOL_PROPERTY
U
SciTegic.value.DoubleValue
24.809

@<SCITEGIC>MOL_PROPERTY
W
SciTegic.value.DoubleValue
-53.969

@<SCITEGIC>MOL_PROPERTY
W(PB)
SciTegic.value.DoubleValue
-56.251

@<SCITEGIC>MOL_PROPERTY
W(SA)
SciTegic.value.DoubleValue
2.282

@<SCITEGIC>MOL_PROPERTY
Valence
SciTegic.value.DoubleValue
3.513

@<SCITEGIC>MOL_PROPERTY
Coulomb
SciTegic.value.DoubleValue
20.422

@<SCITEGIC>MOL_PROPERTY
VdW
SciTegic.value.DoubleValue
0.874

@<SCITEGIC>MOL_PROPERTY
VdW6
SciTegic.value.DoubleValue
-8.372

@<SCITEGIC>MOL_PROPERTY
VdW12
SciTegic.value.DoubleValue
9.246

@<SCITEGIC>MOL_PROPERTY
Bond
SciTegic.value.DoubleValue
0.236

@<SCITEGIC>MOL_PROPERTY
Angle
SciTegic.value.DoubleValue
1.287

@<SCITEGIC>MOL_PROPERTY
Pdih
SciTegic.value.DoubleValue
1.990

@<SCITEGIC>MOL_PROPERTY
Idih
SciTegic.value.DoubleValue
0.000

@<SCITEGIC>MOL_PROPERTY
Tether
SciTegic.value.DoubleValue
0.000

@<TRIPOS>MOLECULE
guest-s13_vm2.mol2 : vm2 ligand conformer 24
          26          25           1
SMALL
USER_CHARGES
 
@<TRIPOS>ATOM
       1    C1      19.082165   18.286647   20.098884 C.3        1 MOL1        -0.2398
       2    H1      18.990264   17.352136   19.530477 H          1 MOL1         0.0972
       3    H2      18.441605   18.198338   20.985214 H          1 MOL1         0.0972
       4    H3      18.693835   19.100416   19.472847 H          1 MOL1         0.0972
       5    C2      20.556036   18.540622   20.488350 C.3        1 MOL1        -0.1383
       6    H4      21.173522   18.502192   19.580106 H          1 MOL1         0.0961
       7    H5      20.915373   17.725109   21.130188 H          1 MOL1         0.0961
       8    C3      20.783700   19.908064   21.181828 C.3        1 MOL1        -0.1407
       9    H6      21.855486   20.022826   21.394616 H          1 MOL1         0.0961
      10    H7      20.530189   20.711007   20.476001 H          1 MOL1         0.0961
      11    C4      19.982670   20.125326   22.491510 C.3        1 MOL1        -0.1407
      12    H8      18.909191   20.133219   22.264704 H          1 MOL1         0.0961
      13    H9      20.219070   21.125320   22.880580 H          1 MOL1         0.0961
      14    C5      20.294390   19.071636   23.585226 C.3        1 MOL1        -0.1472
      15    H10     19.949790   18.081056   23.262119 H          1 MOL1         0.0961
      16    H11     21.383773   19.001802   23.702700 H          1 MOL1         0.0961
      17    C6      19.672245   19.404287   24.960407 C.3        1 MOL1         0.1190
      18    H12     19.993185   20.410254   25.247969 H          1 MOL1         0.0923
      19    C7      18.133648   19.376114   24.921190 C.3        1 MOL1        -0.2463
      20    H13     17.737522   20.149594   24.253189 H          1 MOL1         0.0972
      21    H14     17.718268   19.565649   25.918604 H          1 MOL1         0.0972
      22    H15     17.763114   18.402201   24.577859 H          1 MOL1         0.0972
      23    N1      20.183145   18.475304   26.026604 N.4        1 MOL1        -0.5974
      24    H16     21.203928   18.510310   26.099993 H          1 MOL1         0.3625
      25    H17     19.803958   18.717183   26.946469 H          1 MOL1         0.3625
      26    H18     19.921709   17.504666   25.834412 H          1 MOL1         0.3625
@<TRIPOS>BOND
    1     1     2    1
    2     1     3    1
    3     1     4    1
    4     1     5    1
    5     5     6    1
    6     5     7    1
    7     5     8    1
    8     8     9    1
    9     8    10    1
   10     8    11    1
   11    11    12    1
   12    11    13    1
   13    11    14    1
   14    14    15    1
   15    14    16    1
   16    14    17    1
   17    17    18    1
   18    17    19    1
   19    19    20    1
   20    19    21    1
   21    19    22    1
   22    17    23    1
   23    23    24    1
   24    23    25    1
   25    23    26    1
@<TRIPOS>SUBSTRUCTURE
       1 MOL1            1 RESIDUE      1      MOL     
@<SCITEGIC>MOL_PROPERTY
VM2 Rank
SciTegic.value.IntegerValue
24

@<SCITEGIC>MOL_PROPERTY
Conf_Id
SciTegic.value.IntegerValue
208

@<SCITEGIC>MOL_PROPERTY
Probability
SciTegic.value.DoubleValue
1.19

@<SCITEGIC>MOL_PROPERTY
Sum Probability
SciTegic.value.DoubleValue
92.91

@<SCITEGIC>MOL_PROPERTY
Delta G
SciTegic.value.DoubleValue
1.586

@<SCITEGIC>MOL_PROPERTY
G
SciTegic.value.DoubleValue
25.296

@<SCITEGIC>MOL_PROPERTY
E
SciTegic.value.DoubleValue
-7.727

@<SCITEGIC>MOL_PROPERTY
-TS
SciTegic.value.DoubleValue
33.023

@<SCITEGIC>MOL_PROPERTY
U+W
SciTegic.value.DoubleValue
-29.189

@<SCITEGIC>MOL_PROPERTY
U
SciTegic.value.DoubleValue
25.014

@<SCITEGIC>MOL_PROPERTY
W
SciTegic.value.DoubleValue
-54.203

@<SCITEGIC>MOL_PROPERTY
W(PB)
SciTegic.value.DoubleValue
-56.467

@<SCITEGIC>MOL_PROPERTY
W(SA)
SciTegic.value.DoubleValue
2.263

@<SCITEGIC>MOL_PROPERTY
Valence
SciTegic.value.DoubleValue
4.188

@<SCITEGIC>MOL_PROPERTY
Coulomb
SciTegic.value.DoubleValue
19.774

@<SCITEGIC>MOL_PROPERTY
VdW
SciTegic.value.DoubleValue
1.052

@<SCITEGIC>MOL_PROPERTY
VdW6
SciTegic.value.DoubleValue
-8.655

@<SCITEGIC>MOL_PROPERTY
VdW12
SciTegic.value.DoubleValue
9.707

@<SCITEGIC>MOL_PROPERTY
Bond
SciTegic.value.DoubleValue
0.263

@<SCITEGIC>MOL_PROPERTY
Angle
SciTegic.value.DoubleValue
1.714

@<SCITEGIC>MOL_PROPERTY
Pdih
SciTegic.value.DoubleValue
2.211

@<SCITEGIC>MOL_PROPERTY
Idih
SciTegic.value.DoubleValue
0.000

@<SCITEGIC>MOL_PROPERTY
Tether
SciTegic.value.DoubleValue
0.000

@<TRIPOS>MOLECULE
guest-s13_vm2.mol2 : vm2 ligand conformer 25
          26          25           1
SMALL
USER_CHARGES
 
@<TRIPOS>ATOM
       1    C1      20.060940   18.616808   19.331029 C.3        1 MOL1        -0.2398
       2    H1      20.051104   18.996255   18.301050 H          1 MOL1         0.0972
       3    H2      20.809788   17.816067   19.386312 H          1 MOL1         0.0972
       4    H3      19.074497   18.180232   19.529944 H          1 MOL1         0.0972
       5    C2      20.390173   19.755417   20.323091 C.3        1 MOL1        -0.1383
       6    H4      19.609142   20.526949   20.273361 H          1 MOL1         0.0961
       7    H5      21.322845   20.241741   20.004603 H          1 MOL1         0.0961
       8    C3      20.557371   19.272632   21.784207 C.3        1 MOL1        -0.1407
       9    H6      21.344792   18.507722   21.829557 H          1 MOL1         0.0961
      10    H7      20.914258   20.120727   22.383112 H          1 MOL1         0.0961
      11    C4      19.250095   18.714995   22.402354 C.3        1 MOL1        -0.1407
      12    H8      18.902336   17.857616   21.811853 H          1 MOL1         0.0961
      13    H9      18.455180   19.469390   22.336234 H          1 MOL1         0.0961
      14    C5      19.419485   18.245763   23.870877 C.3        1 MOL1        -0.1472
      15    H10     18.463378   17.840067   24.227303 H          1 MOL1         0.0961
      16    H11     20.129659   17.408516   23.886893 H          1 MOL1         0.0961
      17    C6      19.910802   19.330989   24.858212 C.3        1 MOL1         0.1190
      18    H12     20.868908   19.717494   24.498700 H          1 MOL1         0.0923
      19    C7      18.921950   20.505393   24.966809 C.3        1 MOL1        -0.2463
      20    H13     17.926223   20.158938   25.270299 H          1 MOL1         0.0972
      21    H14     18.825842   21.033915   24.011238 H          1 MOL1         0.0972
      22    H15     19.268913   21.235717   25.708087 H          1 MOL1         0.0972
      23    N1      20.177182   18.746004   26.217421 N.4        1 MOL1        -0.5974
      24    H16     20.865946   17.989452   26.174359 H          1 MOL1         0.3625
      25    H17     20.540789   19.451796   26.864012 H          1 MOL1         0.3625
      26    H18     19.324537   18.361958   26.633335 H          1 MOL1         0.3625
@<TRIPOS>BOND
    1     1     2    1
    2     1     3    1
    3     1     4    1
    4     1     5    1
    5     5     6    1
    6     5     7    1
    7     5     8    1
    8     8     9    1
    9     8    10    1
   10     8    11    1
   11    11    12    1
   12    11    13    1
   13    11    14    1
   14    14    15    1
   15    14    16    1
   16    14    17    1
   17    17    18    1
   18    17    19    1
   19    19    20    1
   20    19    21    1
   21    19    22    1
   22    17    23    1
   23    23    24    1
   24    23    25    1
   25    23    26    1
@<TRIPOS>SUBSTRUCTURE
       1 MOL1            1 RESIDUE      1      MOL     
@<SCITEGIC>MOL_PROPERTY
VM2 Rank
SciTegic.value.IntegerValue
25

@<SCITEGIC>MOL_PROPERTY
Conf_Id
SciTegic.value.IntegerValue
5

@<SCITEGIC>MOL_PROPERTY
Probability
SciTegic.value.DoubleValue
1.14

@<SCITEGIC>MOL_PROPERTY
Sum Probability
SciTegic.value.DoubleValue
94.05

@<SCITEGIC>MOL_PROPERTY
Delta G
SciTegic.value.DoubleValue
1.610

@<SCITEGIC>MOL_PROPERTY
G
SciTegic.value.DoubleValue
25.320

@<SCITEGIC>MOL_PROPERTY
E
SciTegic.value.DoubleValue
-7.603

@<SCITEGIC>MOL_PROPERTY
-TS
SciTegic.value.DoubleValue
32.924

@<SCITEGIC>MOL_PROPERTY
U+W
SciTegic.value.DoubleValue
-29.065

@<SCITEGIC>MOL_PROPERTY
U
SciTegic.value.DoubleValue
25.023

@<SCITEGIC>MOL_PROPERTY
W
SciTegic.value.DoubleValue
-54.088

@<SCITEGIC>MOL_PROPERTY
W(PB)
SciTegic.value.DoubleValue
-56.383

@<SCITEGIC>MOL_PROPERTY
W(SA)
SciTegic.value.DoubleValue
2.296

@<SCITEGIC>MOL_PROPERTY
Valence
SciTegic.value.DoubleValue
4.083

@<SCITEGIC>MOL_PROPERTY
Coulomb
SciTegic.value.DoubleValue
19.893

@<SCITEGIC>MOL_PROPERTY
VdW
SciTegic.value.DoubleValue
1.047

@<SCITEGIC>MOL_PROPERTY
VdW6
SciTegic.value.DoubleValue
-8.479

@<SCITEGIC>MOL_PROPERTY
VdW12
SciTegic.value.DoubleValue
9.527

@<SCITEGIC>MOL_PROPERTY
Bond
SciTegic.value.DoubleValue
0.256

@<SCITEGIC>MOL_PROPERTY
Angle
SciTegic.value.DoubleValue
1.716

@<SCITEGIC>MOL_PROPERTY
Pdih
SciTegic.value.DoubleValue
2.112

@<SCITEGIC>MOL_PROPERTY
Idih
SciTegic.value.DoubleValue
0.000

@<SCITEGIC>MOL_PROPERTY
Tether
SciTegic.value.DoubleValue
0.000

@<TRIPOS>MOLECULE
guest-s13_vm2.mol2 : vm2 ligand conformer 26
          26          25           1
SMALL
USER_CHARGES
 
@<TRIPOS>ATOM
       1    C1      21.167994   19.400049   19.780654 C.3        1 MOL1        -0.2398
       2    H1      20.481215   19.601455   18.948198 H          1 MOL1         0.0972
       3    H2      21.565077   20.359757   20.136321 H          1 MOL1         0.0972
       4    H3      22.008182   18.811983   19.389144 H          1 MOL1         0.0972
       5    C2      20.453969   18.639657   20.918120 C.3        1 MOL1        -0.1383
       6    H4      21.180834   18.421891   21.711902 H          1 MOL1         0.0961
       7    H5      20.094681   17.672156   20.540562 H          1 MOL1         0.0961
       8    C3      19.266732   19.450781   21.488284 C.3        1 MOL1        -0.1407
       9    H6      19.631082   20.402836   21.896716 H          1 MOL1         0.0961
      10    H7      18.587707   19.715297   20.665934 H          1 MOL1         0.0961
      11    C4      18.454718   18.686399   22.565587 C.3        1 MOL1        -0.1407
      12    H8      18.011280   17.790324   22.110013 H          1 MOL1         0.0961
      13    H9      17.605078   19.308003   22.878214 H          1 MOL1         0.0961
      14    C5      19.269171   18.258103   23.815985 C.3        1 MOL1        -0.1472
      15    H10     18.589769   17.787989   24.539236 H          1 MOL1         0.0961
      16    H11     19.980163   17.475038   23.523422 H          1 MOL1         0.0961
      17    C6      20.043358   19.401825   24.512132 C.3        1 MOL1         0.1190
      18    H12     20.703816   19.868614   23.775248 H          1 MOL1         0.0923
      19    C7      19.098073   20.479676   25.072007 C.3        1 MOL1        -0.2463
      20    H13     18.530683   20.966694   24.270422 H          1 MOL1         0.0972
      21    H14     19.666951   21.261721   25.589706 H          1 MOL1         0.0972
      22    H15     18.384167   20.049258   25.785224 H          1 MOL1         0.0972
      23    N1      20.933985   18.871510   25.601230 N.4        1 MOL1        -0.5974
      24    H16     21.600801   18.182439   25.242051 H          1 MOL1         0.3625
      25    H17     21.477130   19.621233   26.038650 H          1 MOL1         0.3625
      26    H18     20.391046   18.417444   26.340510 H          1 MOL1         0.3625
@<TRIPOS>BOND
    1     1     2    1
    2     1     3    1
    3     1     4    1
    4     1     5    1
    5     5     6    1
    6     5     7    1
    7     5     8    1
    8     8     9    1
    9     8    10    1
   10     8    11    1
   11    11    12    1
   12    11    13    1
   13    11    14    1
   14    14    15    1
   15    14    16    1
   16    14    17    1
   17    17    18    1
   18    17    19    1
   19    19    20    1
   20    19    21    1
   21    19    22    1
   22    17    23    1
   23    23    24    1
   24    23    25    1
   25    23    26    1
@<TRIPOS>SUBSTRUCTURE
       1 MOL1            1 RESIDUE      1      MOL     
@<SCITEGIC>MOL_PROPERTY
VM2 Rank
SciTegic.value.IntegerValue
26

@<SCITEGIC>MOL_PROPERTY
Conf_Id
SciTegic.value.IntegerValue
1079

@<SCITEGIC>MOL_PROPERTY
Probability
SciTegic.value.DoubleValue
1.06

@<SCITEGIC>MOL_PROPERTY
Sum Probability
SciTegic.value.DoubleValue
95.11

@<SCITEGIC>MOL_PROPERTY
Delta G
SciTegic.value.DoubleValue
1.655

@<SCITEGIC>MOL_PROPERTY
G
SciTegic.value.DoubleValue
25.365

@<SCITEGIC>MOL_PROPERTY
E
SciTegic.value.DoubleValue
-7.775

@<SCITEGIC>MOL_PROPERTY
-TS
SciTegic.value.DoubleValue
33.140

@<SCITEGIC>MOL_PROPERTY
U+W
SciTegic.value.DoubleValue
-29.237

@<SCITEGIC>MOL_PROPERTY
U
SciTegic.value.DoubleValue
25.091

@<SCITEGIC>MOL_PROPERTY
W
SciTegic.value.DoubleValue
-54.328

@<SCITEGIC>MOL_PROPERTY
W(PB)
SciTegic.value.DoubleValue
-56.623

@<SCITEGIC>MOL_PROPERTY
W(SA)
SciTegic.value.DoubleValue
2.295

@<SCITEGIC>MOL_PROPERTY
Valence
SciTegic.value.DoubleValue
3.982

@<SCITEGIC>MOL_PROPERTY
Coulomb
SciTegic.value.DoubleValue
20.360

@<SCITEGIC>MOL_PROPERTY
VdW
SciTegic.value.DoubleValue
0.750

@<SCITEGIC>MOL_PROPERTY
VdW6
SciTegic.value.DoubleValue
-8.971

@<SCITEGIC>MOL_PROPERTY
VdW12
SciTegic.value.DoubleValue
9.721

@<SCITEGIC>MOL_PROPERTY
Bond
SciTegic.value.DoubleValue
0.256

@<SCITEGIC>MOL_PROPERTY
Angle
SciTegic.value.DoubleValue
1.694

@<SCITEGIC>MOL_PROPERTY
Pdih
SciTegic.value.DoubleValue
2.032

@<SCITEGIC>MOL_PROPERTY
Idih
SciTegic.value.DoubleValue
0.000

@<SCITEGIC>MOL_PROPERTY
Tether
SciTegic.value.DoubleValue
0.000

@<TRIPOS>MOLECULE
guest-s13_vm2.mol2 : vm2 ligand conformer 27
          26          25           1
SMALL
USER_CHARGES
 
@<TRIPOS>ATOM
       1    C1      19.030327   19.323439   19.974879 C.3        1 MOL1        -0.2398
       2    H1      18.710590   18.332088   19.628570 H          1 MOL1         0.0972
       3    H2      18.382985   19.622259   20.808755 H          1 MOL1         0.0972
       4    H3      18.863993   20.035311   19.156094 H          1 MOL1         0.0972
       5    C2      20.519175   19.313271   20.389272 C.3        1 MOL1        -0.1383
       6    H4      20.809956   20.308483   20.751196 H          1 MOL1         0.0961
       7    H5      21.133247   19.127751   19.496991 H          1 MOL1         0.0961
       8    C3      20.856590   18.236402   21.452011 C.3        1 MOL1        -0.1407
       9    H6      20.677226   17.242782   21.018747 H          1 MOL1         0.0961
      10    H7      21.932680   18.278958   21.669669 H          1 MOL1         0.0961
      11    C4      20.067713   18.347781   22.782307 C.3        1 MOL1        -0.1407
      12    H8      20.381720   17.521255   23.432869 H          1 MOL1         0.0961
      13    H9      18.999427   18.191259   22.586816 H          1 MOL1         0.0961
      14    C5      20.287618   19.698509   23.516505 C.3        1 MOL1        -0.1472
      15    H10     21.364985   19.879649   23.624331 H          1 MOL1         0.0961
      16    H11     19.901526   20.520116   22.900272 H          1 MOL1         0.0961
      17    C6      19.631445   19.792481   24.914231 C.3        1 MOL1         0.1190
      18    H12     19.874370   20.778947   25.321282 H          1 MOL1         0.0923
      19    C7      18.098289   19.684357   24.840397 C.3        1 MOL1        -0.2463
      20    H13     17.776890   18.683643   24.528106 H          1 MOL1         0.0972
      21    H14     17.689694   20.414181   24.130486 H          1 MOL1         0.0972
      22    H15     17.651729   19.888643   25.821216 H          1 MOL1         0.0972
      23    N1      20.196842   18.791759   25.884396 N.4        1 MOL1        -0.5974
      24    H16     21.212719   18.885778   25.971488 H          1 MOL1         0.3625
      25    H17     19.797599   18.910652   26.819723 H          1 MOL1         0.3625
      26    H18     20.000386   17.833131   25.586775 H          1 MOL1         0.3625
@<TRIPOS>BOND
    1     1     2    1
    2     1     3    1
    3     1     4    1
    4     1     5    1
    5     5     6    1
    6     5     7    1
    7     5     8    1
    8     8     9    1
    9     8    10    1
   10     8    11    1
   11    11    12    1
   12    11    13    1
   13    11    14    1
   14    14    15    1
   15    14    16    1
   16    14    17    1
   17    17    18    1
   18    17    19    1
   19    19    20    1
   20    19    21    1
   21    19    22    1
   22    17    23    1
   23    23    24    1
   24    23    25    1
   25    23    26    1
@<TRIPOS>SUBSTRUCTURE
       1 MOL1            1 RESIDUE      1      MOL     
@<SCITEGIC>MOL_PROPERTY
VM2 Rank
SciTegic.value.IntegerValue
27

@<SCITEGIC>MOL_PROPERTY
Conf_Id
SciTegic.value.IntegerValue
546

@<SCITEGIC>MOL_PROPERTY
Probability
SciTegic.value.DoubleValue
0.84

@<SCITEGIC>MOL_PROPERTY
Sum Probability
SciTegic.value.DoubleValue
95.95

@<SCITEGIC>MOL_PROPERTY
Delta G
SciTegic.value.DoubleValue
1.794

@<SCITEGIC>MOL_PROPERTY
G
SciTegic.value.DoubleValue
25.503

@<SCITEGIC>MOL_PROPERTY
E
SciTegic.value.DoubleValue
-7.647

@<SCITEGIC>MOL_PROPERTY
-TS
SciTegic.value.DoubleValue
33.151

@<SCITEGIC>MOL_PROPERTY
U+W
SciTegic.value.DoubleValue
-29.109

@<SCITEGIC>MOL_PROPERTY
U
SciTegic.value.DoubleValue
25.100

@<SCITEGIC>MOL_PROPERTY
W
SciTegic.value.DoubleValue
-54.209

@<SCITEGIC>MOL_PROPERTY
W(PB)
SciTegic.value.DoubleValue
-56.439

@<SCITEGIC>MOL_PROPERTY
W(SA)
SciTegic.value.DoubleValue
2.229

@<SCITEGIC>MOL_PROPERTY
Valence
SciTegic.value.DoubleValue
4.185

@<SCITEGIC>MOL_PROPERTY
Coulomb
SciTegic.value.DoubleValue
19.843

@<SCITEGIC>MOL_PROPERTY
VdW
SciTegic.value.DoubleValue
1.072

@<SCITEGIC>MOL_PROPERTY
VdW6
SciTegic.value.DoubleValue
-9.124

@<SCITEGIC>MOL_PROPERTY
VdW12
SciTegic.value.DoubleValue
10.197

@<SCITEGIC>MOL_PROPERTY
Bond
SciTegic.value.DoubleValue
0.294

@<SCITEGIC>MOL_PROPERTY
Angle
SciTegic.value.DoubleValue
1.814

@<SCITEGIC>MOL_PROPERTY
Pdih
SciTegic.value.DoubleValue
2.077

@<SCITEGIC>MOL_PROPERTY
Idih
SciTegic.value.DoubleValue
0.000

@<SCITEGIC>MOL_PROPERTY
Tether
SciTegic.value.DoubleValue
0.000

@<TRIPOS>MOLECULE
guest-s13_vm2.mol2 : vm2 ligand conformer 28
          26          25           1
SMALL
USER_CHARGES
 
@<TRIPOS>ATOM
       1    C1      21.308779   19.239668   20.127685 C.3        1 MOL1        -0.2398
       2    H1      21.004788   20.102253   19.520647 H          1 MOL1         0.0972
       3    H2      21.755579   19.613114   21.057509 H          1 MOL1         0.0972
       4    H3      22.091611   18.701070   19.578198 H          1 MOL1         0.0972
       5    C2      20.107967   18.308924   20.410575 C.3        1 MOL1        -0.1383
       6    H4      20.431114   17.465866   21.035548 H          1 MOL1         0.0961
       7    H5      19.773156   17.866212   19.462101 H          1 MOL1         0.0961
       8    C3      18.905079   19.034568   21.066185 C.3        1 MOL1        -0.1407
       9    H6      18.515225   19.779707   20.359082 H          1 MOL1         0.0961
      10    H7      18.093084   18.309611   21.215462 H          1 MOL1         0.0961
      11    C4      19.204241   19.741365   22.414095 C.3        1 MOL1        -0.1407
      12    H8      18.282407   20.239699   22.739781 H          1 MOL1         0.0961
      13    H9      19.942736   20.539699   22.262500 H          1 MOL1         0.0961
      14    C5      19.694997   18.776836   23.525006 C.3        1 MOL1        -0.1472
      15    H10     18.949412   17.987205   23.686813 H          1 MOL1         0.0961
      16    H11     20.609898   18.277624   23.183509 H          1 MOL1         0.0961
      17    C6      20.009035   19.479476   24.866000 C.3        1 MOL1         0.1190
      18    H12     20.705851   20.299920   24.668531 H          1 MOL1         0.0923
      19    C7      18.747164   20.059983   25.529945 C.3        1 MOL1        -0.2463
      20    H13     18.991091   20.497700   26.505768 H          1 MOL1         0.0972
      21    H14     17.987930   19.283568   25.686196 H          1 MOL1         0.0972
      22    H15     18.304690   20.856439   24.920986 H          1 MOL1         0.0972
      23    N1      20.710738   18.547179   25.814510 N.4        1 MOL1        -0.5974
      24    H16     21.578828   18.182274   25.412228 H          1 MOL1         0.3625
      25    H17     20.956079   19.018895   26.689579 H          1 MOL1         0.3625
      26    H18     20.122137   17.745156   26.054968 H          1 MOL1         0.3625
@<TRIPOS>BOND
    1     1     2    1
    2     1     3    1
    3     1     4    1
    4     1     5    1
    5     5     6    1
    6     5     7    1
    7     5     8    1
    8     8     9    1
    9     8    10    1
   10     8    11    1
   11    11    12    1
   12    11    13    1
   13    11    14    1
   14    14    15    1
   15    14    16    1
   16    14    17    1
   17    17    18    1
   18    17    19    1
   19    19    20    1
   20    19    21    1
   21    19    22    1
   22    17    23    1
   23    23    24    1
   24    23    25    1
   25    23    26    1
@<TRIPOS>SUBSTRUCTURE
       1 MOL1            1 RESIDUE      1      MOL     
@<SCITEGIC>MOL_PROPERTY
VM2 Rank
SciTegic.value.IntegerValue
28

@<SCITEGIC>MOL_PROPERTY
Conf_Id
SciTegic.value.IntegerValue
264

@<SCITEGIC>MOL_PROPERTY
Probability
SciTegic.value.DoubleValue
0.77

@<SCITEGIC>MOL_PROPERTY
Sum Probability
SciTegic.value.DoubleValue
96.72

@<SCITEGIC>MOL_PROPERTY
Delta G
SciTegic.value.DoubleValue
1.848

@<SCITEGIC>MOL_PROPERTY
G
SciTegic.value.DoubleValue
25.558

@<SCITEGIC>MOL_PROPERTY
E
SciTegic.value.DoubleValue
-7.392

@<SCITEGIC>MOL_PROPERTY
-TS
SciTegic.value.DoubleValue
32.951

@<SCITEGIC>MOL_PROPERTY
U+W
SciTegic.value.DoubleValue
-28.854

@<SCITEGIC>MOL_PROPERTY
U
SciTegic.value.DoubleValue
25.366

@<SCITEGIC>MOL_PROPERTY
W
SciTegic.value.DoubleValue
-54.220

@<SCITEGIC>MOL_PROPERTY
W(PB)
SciTegic.value.DoubleValue
-56.490

@<SCITEGIC>MOL_PROPERTY
W(SA)
SciTegic.value.DoubleValue
2.270

@<SCITEGIC>MOL_PROPERTY
Valence
SciTegic.value.DoubleValue
4.329

@<SCITEGIC>MOL_PROPERTY
Coulomb
SciTegic.value.DoubleValue
19.841

@<SCITEGIC>MOL_PROPERTY
VdW
SciTegic.value.DoubleValue
1.196

@<SCITEGIC>MOL_PROPERTY
VdW6
SciTegic.value.DoubleValue
-8.514

@<SCITEGIC>MOL_PROPERTY
VdW12
SciTegic.value.DoubleValue
9.710

@<SCITEGIC>MOL_PROPERTY
Bond
SciTegic.value.DoubleValue
0.275

@<SCITEGIC>MOL_PROPERTY
Angle
SciTegic.value.DoubleValue
1.895

@<SCITEGIC>MOL_PROPERTY
Pdih
SciTegic.value.DoubleValue
2.159

@<SCITEGIC>MOL_PROPERTY
Idih
SciTegic.value.DoubleValue
0.000

@<SCITEGIC>MOL_PROPERTY
Tether
SciTegic.value.DoubleValue
0.000

@<TRIPOS>MOLECULE
guest-s13_vm2.mol2 : vm2 ligand conformer 29
          26          25           1
SMALL
USER_CHARGES
 
@<TRIPOS>ATOM
       1    C1      19.526178   19.232702   19.786371 C.3        1 MOL1        -0.2398
       2    H1      19.246447   20.043147   19.100977 H          1 MOL1         0.0972
       3    H2      20.016994   18.447959   19.196270 H          1 MOL1         0.0972
       4    H3      18.600217   18.819401   20.205062 H          1 MOL1         0.0972
       5    C2      20.463497   19.760957   20.895650 C.3        1 MOL1        -0.1383
       6    H4      19.947305   20.534754   21.479459 H          1 MOL1         0.0961
       7    H5      21.321173   20.261333   20.424831 H          1 MOL1         0.0961
       8    C3      20.995319   18.646807   21.832522 C.3        1 MOL1        -0.1407
       9    H6      21.591205   17.939787   21.239035 H          1 MOL1         0.0961
      10    H7      21.696370   19.092528   22.550653 H          1 MOL1         0.0961
      11    C4      19.903014   17.852889   22.598770 C.3        1 MOL1        -0.1407
      12    H8      20.392162   17.104263   23.236126 H          1 MOL1         0.0961
      13    H9      19.302898   17.275398   21.883061 H          1 MOL1         0.0961
      14    C5      18.952333   18.722864   23.463542 C.3        1 MOL1        -0.1472
      15    H10     18.339362   19.349891   22.803446 H          1 MOL1         0.0961
      16    H11     18.248963   18.065981   23.992160 H          1 MOL1         0.0961
      17    C6      19.678986   19.623325   24.486904 C.3        1 MOL1         0.1190
      18    H12     20.375649   20.268446   23.943292 H          1 MOL1         0.0923
      19    C7      18.670573   20.519328   25.223148 C.3        1 MOL1        -0.2463
      20    H13     17.946858   19.920345   25.789998 H          1 MOL1         0.0972
      21    H14     18.114992   21.145155   24.513655 H          1 MOL1         0.0972
      22    H15     19.184914   21.187808   25.924519 H          1 MOL1         0.0972
      23    N1      20.498100   18.829127   25.467093 N.4        1 MOL1        -0.5974
      24    H16     19.909998   18.202727   26.022910 H          1 MOL1         0.3625
      25    H17     21.195119   18.253095   24.987712 H          1 MOL1         0.3625
      26    H18     20.998505   19.439459   26.119301 H          1 MOL1         0.3625
@<TRIPOS>BOND
    1     1     2    1
    2     1     3    1
    3     1     4    1
    4     1     5    1
    5     5     6    1
    6     5     7    1
    7     5     8    1
    8     8     9    1
    9     8    10    1
   10     8    11    1
   11    11    12    1
   12    11    13    1
   13    11    14    1
   14    14    15    1
   15    14    16    1
   16    14    17    1
   17    17    18    1
   18    17    19    1
   19    19    20    1
   20    19    21    1
   21    19    22    1
   22    17    23    1
   23    23    24    1
   24    23    25    1
   25    23    26    1
@<TRIPOS>SUBSTRUCTURE
       1 MOL1            1 RESIDUE      1      MOL     
@<SCITEGIC>MOL_PROPERTY
VM2 Rank
SciTegic.value.IntegerValue
29

@<SCITEGIC>MOL_PROPERTY
Conf_Id
SciTegic.value.IntegerValue
154

@<SCITEGIC>MOL_PROPERTY
Probability
SciTegic.value.DoubleValue
0.72

@<SCITEGIC>MOL_PROPERTY
Sum Probability
SciTegic.value.DoubleValue
97.44

@<SCITEGIC>MOL_PROPERTY
Delta G
SciTegic.value.DoubleValue
1.885

@<SCITEGIC>MOL_PROPERTY
G
SciTegic.value.DoubleValue
25.595

@<SCITEGIC>MOL_PROPERTY
E
SciTegic.value.DoubleValue
-7.749

@<SCITEGIC>MOL_PROPERTY
-TS
SciTegic.value.DoubleValue
33.343

@<SCITEGIC>MOL_PROPERTY
U+W
SciTegic.value.DoubleValue
-29.210

@<SCITEGIC>MOL_PROPERTY
U
SciTegic.value.DoubleValue
24.974

@<SCITEGIC>MOL_PROPERTY
W
SciTegic.value.DoubleValue
-54.183

@<SCITEGIC>MOL_PROPERTY
W(PB)
SciTegic.value.DoubleValue
-56.448

@<SCITEGIC>MOL_PROPERTY
W(SA)
SciTegic.value.DoubleValue
2.265

@<SCITEGIC>MOL_PROPERTY
Valence
SciTegic.value.DoubleValue
3.932

@<SCITEGIC>MOL_PROPERTY
Coulomb
SciTegic.value.DoubleValue
20.396

@<SCITEGIC>MOL_PROPERTY
VdW
SciTegic.value.DoubleValue
0.646

@<SCITEGIC>MOL_PROPERTY
VdW6
SciTegic.value.DoubleValue
-9.633

@<SCITEGIC>MOL_PROPERTY
VdW12
SciTegic.value.DoubleValue
10.279

@<SCITEGIC>MOL_PROPERTY
Bond
SciTegic.value.DoubleValue
0.286

@<SCITEGIC>MOL_PROPERTY
Angle
SciTegic.value.DoubleValue
1.718

@<SCITEGIC>MOL_PROPERTY
Pdih
SciTegic.value.DoubleValue
1.928

@<SCITEGIC>MOL_PROPERTY
Idih
SciTegic.value.DoubleValue
0.000

@<SCITEGIC>MOL_PROPERTY
Tether
SciTegic.value.DoubleValue
0.000

@<TRIPOS>MOLECULE
guest-s13_vm2.mol2 : vm2 ligand conformer 30
          26          25           1
SMALL
USER_CHARGES
 
@<TRIPOS>ATOM
       1    C1      21.197183   18.189611   20.363499 C.3        1 MOL1        -0.2398
       2    H1      20.667658   17.304277   19.988361 H          1 MOL1         0.0972
       3    H2      22.074958   18.352013   19.724771 H          1 MOL1         0.0972
       4    H3      21.561085   17.970516   21.374939 H          1 MOL1         0.0972
       5    C2      20.279651   19.433094   20.348830 C.3        1 MOL1        -0.1383
       6    H4      20.041363   19.684037   19.305797 H          1 MOL1         0.0961
       7    H5      20.823175   20.299764   20.747961 H          1 MOL1         0.0961
       8    C3      18.951372   19.229489   21.121652 C.3        1 MOL1        -0.1407
       9    H6      18.351853   20.146830   21.042828 H          1 MOL1         0.0961
      10    H7      18.367376   18.445682   20.619876 H          1 MOL1         0.0961
      11    C4      19.102966   18.852839   22.618347 C.3        1 MOL1        -0.1407
      12    H8      19.606071   17.881480   22.703569 H          1 MOL1         0.0961
      13    H9      18.095935   18.710437   23.030740 H          1 MOL1         0.0961
      14    C5      19.858979   19.924594   23.450352 C.3        1 MOL1        -0.1472
      15    H10     20.874462   20.047088   23.054291 H          1 MOL1         0.0961
      16    H11     19.364862   20.897045   23.325241 H          1 MOL1         0.0961
      17    C6      19.973439   19.614091   24.961658 C.3        1 MOL1         0.1190
      18    H12     20.567467   20.415003   25.412753 H          1 MOL1         0.0923
      19    C7      18.601840   19.606423   25.659268 C.3        1 MOL1        -0.2463
      20    H13     17.983380   18.762513   25.331830 H          1 MOL1         0.0972
      21    H14     18.054502   20.534740   25.453895 H          1 MOL1         0.0972
      22    H15     18.725730   19.527583   26.746280 H          1 MOL1         0.0972
      23    N1      20.722569   18.337860   25.230395 N.4        1 MOL1        -0.5974
      24    H16     20.842807   18.179291   26.234788 H          1 MOL1         0.3625
      25    H17     20.226047   17.528861   24.849279 H          1 MOL1         0.3625
      26    H18     21.655747   18.354513   24.809454 H          1 MOL1         0.3625
@<TRIPOS>BOND
    1     1     2    1
    2     1     3    1
    3     1     4    1
    4     1     5    1
    5     5     6    1
    6     5     7    1
    7     5     8    1
    8     8     9    1
    9     8    10    1
   10     8    11    1
   11    11    12    1
   12    11    13    1
   13    11    14    1
   14    14    15    1
   15    14    16    1
   16    14    17    1
   17    17    18    1
   18    17    19    1
   19    19    20    1
   20    19    21    1
   21    19    22    1
   22    17    23    1
   23    23    24    1
   24    23    25    1
   25    23    26    1
@<TRIPOS>SUBSTRUCTURE
       1 MOL1            1 RESIDUE      1      MOL     
@<SCITEGIC>MOL_PROPERTY
VM2 Rank
SciTegic.value.IntegerValue
30

@<SCITEGIC>MOL_PROPERTY
Conf_Id
SciTegic.value.IntegerValue
443

@<SCITEGIC>MOL_PROPERTY
Probability
SciTegic.value.DoubleValue
0.49

@<SCITEGIC>MOL_PROPERTY
Sum Probability
SciTegic.value.DoubleValue
97.94

@<SCITEGIC>MOL_PROPERTY
Delta G
SciTegic.value.DoubleValue
2.111

@<SCITEGIC>MOL_PROPERTY
G
SciTegic.value.DoubleValue
25.821

@<SCITEGIC>MOL_PROPERTY
E
SciTegic.value.DoubleValue
-7.289

@<SCITEGIC>MOL_PROPERTY
-TS
SciTegic.value.DoubleValue
33.110

@<SCITEGIC>MOL_PROPERTY
U+W
SciTegic.value.DoubleValue
-28.751

@<SCITEGIC>MOL_PROPERTY
U
SciTegic.value.DoubleValue
25.589

@<SCITEGIC>MOL_PROPERTY
W
SciTegic.value.DoubleValue
-54.340

@<SCITEGIC>MOL_PROPERTY
W(PB)
SciTegic.value.DoubleValue
-56.600

@<SCITEGIC>MOL_PROPERTY
W(SA)
SciTegic.value.DoubleValue
2.260

@<SCITEGIC>MOL_PROPERTY
Valence
SciTegic.value.DoubleValue
4.268

@<SCITEGIC>MOL_PROPERTY
Coulomb
SciTegic.value.DoubleValue
20.216

@<SCITEGIC>MOL_PROPERTY
VdW
SciTegic.value.DoubleValue
1.104

@<SCITEGIC>MOL_PROPERTY
VdW6
SciTegic.value.DoubleValue
-9.052

@<SCITEGIC>MOL_PROPERTY
VdW12
SciTegic.value.DoubleValue
10.157

@<SCITEGIC>MOL_PROPERTY
Bond
SciTegic.value.DoubleValue
0.298

@<SCITEGIC>MOL_PROPERTY
Angle
SciTegic.value.DoubleValue
1.891

@<SCITEGIC>MOL_PROPERTY
Pdih
SciTegic.value.DoubleValue
2.079

@<SCITEGIC>MOL_PROPERTY
Idih
SciTegic.value.DoubleValue
0.000

@<SCITEGIC>MOL_PROPERTY
Tether
SciTegic.value.DoubleValue
0.000

@<TRIPOS>MOLECULE
guest-s13_vm2.mol2 : vm2 ligand conformer 31
          26          25           1
SMALL
USER_CHARGES
 
@<TRIPOS>ATOM
       1    C1      20.537028   18.209300   19.995033 C.3        1 MOL1        -0.2398
       2    H1      21.456121   17.792922   19.562914 H          1 MOL1         0.0972
       3    H2      20.002757   17.388497   20.489353 H          1 MOL1         0.0972
       4    H3      19.914146   18.577083   19.169387 H          1 MOL1         0.0972
       5    C2      20.871689   19.346228   20.986740 C.3        1 MOL1        -0.1383
       6    H4      21.498499   20.089147   20.474077 H          1 MOL1         0.0961
       7    H5      21.483804   18.952206   21.808924 H          1 MOL1         0.0961
       8    C3      19.616273   20.061742   21.546956 C.3        1 MOL1        -0.1407
       9    H6      19.937841   20.890499   22.191794 H          1 MOL1         0.0961
      10    H7      19.073871   20.529748   20.713962 H          1 MOL1         0.0961
      11    C4      18.632509   19.150631   22.329347 C.3        1 MOL1        -0.1407
      12    H8      18.187141   18.419749   21.641431 H          1 MOL1         0.0961
      13    H9      17.791460   19.760799   22.684384 H          1 MOL1         0.0961
      14    C5      19.262215   18.391878   23.528210 C.3        1 MOL1        -0.1472
      15    H10     18.476159   17.824334   24.043559 H          1 MOL1         0.0961
      16    H11     19.965686   17.643716   23.141339 H          1 MOL1         0.0961
      17    C6      19.998628   19.288666   24.550624 C.3        1 MOL1         0.1190
      18    H12     20.763857   19.861008   24.017861 H          1 MOL1         0.0923
      19    C7      19.043771   20.277643   25.242674 C.3        1 MOL1        -0.2463
      20    H13     18.229007   19.750190   25.754090 H          1 MOL1         0.0972
      21    H14     18.601691   20.974818   24.521490 H          1 MOL1         0.0972
      22    H15     19.581437   20.877256   25.987388 H          1 MOL1         0.0972
      23    N1      20.725888   18.461912   25.574415 N.4        1 MOL1        -0.5974
      24    H16     20.077199   17.893175   26.125066 H          1 MOL1         0.3625
      25    H17     21.398298   17.825250   25.137405 H          1 MOL1         0.3625
      26    H18     21.246561   19.051370   26.230046 H          1 MOL1         0.3625
@<TRIPOS>BOND
    1     1     2    1
    2     1     3    1
    3     1     4    1
    4     1     5    1
    5     5     6    1
    6     5     7    1
    7     5     8    1
    8     8     9    1
    9     8    10    1
   10     8    11    1
   11    11    12    1
   12    11    13    1
   13    11    14    1
   14    14    15    1
   15    14    16    1
   16    14    17    1
   17    17    18    1
   18    17    19    1
   19    19    20    1
   20    19    21    1
   21    19    22    1
   22    17    23    1
   23    23    24    1
   24    23    25    1
   25    23    26    1
@<TRIPOS>SUBSTRUCTURE
       1 MOL1            1 RESIDUE      1      MOL     
@<SCITEGIC>MOL_PROPERTY
VM2 Rank
SciTegic.value.IntegerValue
31

@<SCITEGIC>MOL_PROPERTY
Conf_Id
SciTegic.value.IntegerValue
141

@<SCITEGIC>MOL_PROPERTY
Probability
SciTegic.value.DoubleValue
0.40

@<SCITEGIC>MOL_PROPERTY
Sum Probability
SciTegic.value.DoubleValue
98.34

@<SCITEGIC>MOL_PROPERTY
Delta G
SciTegic.value.DoubleValue
2.236

@<SCITEGIC>MOL_PROPERTY
G
SciTegic.value.DoubleValue
25.946

@<SCITEGIC>MOL_PROPERTY
E
SciTegic.value.DoubleValue
-7.505

@<SCITEGIC>MOL_PROPERTY
-TS
SciTegic.value.DoubleValue
33.451

@<SCITEGIC>MOL_PROPERTY
U+W
SciTegic.value.DoubleValue
-28.966

@<SCITEGIC>MOL_PROPERTY
U
SciTegic.value.DoubleValue
25.506

@<SCITEGIC>MOL_PROPERTY
W
SciTegic.value.DoubleValue
-54.473

@<SCITEGIC>MOL_PROPERTY
W(PB)
SciTegic.value.DoubleValue
-56.692

@<SCITEGIC>MOL_PROPERTY
W(SA)
SciTegic.value.DoubleValue
2.220

@<SCITEGIC>MOL_PROPERTY
Valence
SciTegic.value.DoubleValue
4.414

@<SCITEGIC>MOL_PROPERTY
Coulomb
SciTegic.value.DoubleValue
20.363

@<SCITEGIC>MOL_PROPERTY
VdW
SciTegic.value.DoubleValue
0.729

@<SCITEGIC>MOL_PROPERTY
VdW6
SciTegic.value.DoubleValue
-9.839

@<SCITEGIC>MOL_PROPERTY
VdW12
SciTegic.value.DoubleValue
10.567

@<SCITEGIC>MOL_PROPERTY
Bond
SciTegic.value.DoubleValue
0.296

@<SCITEGIC>MOL_PROPERTY
Angle
SciTegic.value.DoubleValue
2.006

@<SCITEGIC>MOL_PROPERTY
Pdih
SciTegic.value.DoubleValue
2.112

@<SCITEGIC>MOL_PROPERTY
Idih
SciTegic.value.DoubleValue
0.000

@<SCITEGIC>MOL_PROPERTY
Tether
SciTegic.value.DoubleValue
0.000

@<TRIPOS>MOLECULE
guest-s13_vm2.mol2 : vm2 ligand conformer 32
          26          25           1
SMALL
USER_CHARGES
 
@<TRIPOS>ATOM
       1    C1      20.714821   17.885347   19.438188 C.3        1 MOL1        -0.2398
       2    H1      19.725398   17.492548   19.169869 H          1 MOL1         0.0972
       3    H2      21.255151   18.101469   18.507392 H          1 MOL1         0.0972
       4    H3      21.262901   17.097004   19.970472 H          1 MOL1         0.0972
       5    C2      20.590730   19.157109   20.303920 C.3        1 MOL1        -0.1383
       6    H4      20.070401   19.937782   19.731419 H          1 MOL1         0.0961
       7    H5      21.594467   19.544603   20.528208 H          1 MOL1         0.0961
       8    C3      19.831597   18.881206   21.620703 C.3        1 MOL1        -0.1407
       9    H6      18.828682   18.497659   21.387254 H          1 MOL1         0.0961
      10    H7      20.351339   18.088777   22.170058 H          1 MOL1         0.0961
      11    C4      19.705542   20.159045   22.486814 C.3        1 MOL1        -0.1407
      12    H8      19.201447   20.928294   21.885346 H          1 MOL1         0.0961
      13    H9      20.700304   20.562531   22.721732 H          1 MOL1         0.0961
      14    C5      18.892526   19.960091   23.793419 C.3        1 MOL1        -0.1472
      15    H10     18.440113   20.926595   24.052889 H          1 MOL1         0.0961
      16    H11     18.053787   19.272827   23.620437 H          1 MOL1         0.0961
      17    C6      19.730404   19.493617   25.007271 C.3        1 MOL1         0.1190
      18    H12     20.556666   20.198574   25.141262 H          1 MOL1         0.0923
      19    C7      18.872419   19.514061   26.282806 C.3        1 MOL1        -0.2463
      20    H13     18.025144   18.821546   26.202336 H          1 MOL1         0.0972
      21    H14     18.475248   20.519411   26.470531 H          1 MOL1         0.0972
      22    H15     19.468637   19.224489   27.156919 H          1 MOL1         0.0972
      23    N1      20.349961   18.137525   24.820878 N.4        1 MOL1        -0.5974
      24    H16     20.901512   17.863009   25.638729 H          1 MOL1         0.3625
      25    H17     19.636524   17.418511   24.675274 H          1 MOL1         0.3625
      26    H18     20.975310   18.125842   24.011160 H          1 MOL1         0.3625
@<TRIPOS>BOND
    1     1     2    1
    2     1     3    1
    3     1     4    1
    4     1     5    1
    5     5     6    1
    6     5     7    1
    7     5     8    1
    8     8     9    1
    9     8    10    1
   10     8    11    1
   11    11    12    1
   12    11    13    1
   13    11    14    1
   14    14    15    1
   15    14    16    1
   16    14    17    1
   17    17    18    1
   18    17    19    1
   19    19    20    1
   20    19    21    1
   21    19    22    1
   22    17    23    1
   23    23    24    1
   24    23    25    1
   25    23    26    1
@<TRIPOS>SUBSTRUCTURE
       1 MOL1            1 RESIDUE      1      MOL     
@<SCITEGIC>MOL_PROPERTY
VM2 Rank
SciTegic.value.IntegerValue
32

@<SCITEGIC>MOL_PROPERTY
Conf_Id
SciTegic.value.IntegerValue
1097

@<SCITEGIC>MOL_PROPERTY
Probability
SciTegic.value.DoubleValue
0.19

@<SCITEGIC>MOL_PROPERTY
Sum Probability
SciTegic.value.DoubleValue
98.52

@<SCITEGIC>MOL_PROPERTY
Delta G
SciTegic.value.DoubleValue
2.696

@<SCITEGIC>MOL_PROPERTY
G
SciTegic.value.DoubleValue
26.406

@<SCITEGIC>MOL_PROPERTY
E
SciTegic.value.DoubleValue
-5.958

@<SCITEGIC>MOL_PROPERTY
-TS
SciTegic.value.DoubleValue
32.363

@<SCITEGIC>MOL_PROPERTY
U+W
SciTegic.value.DoubleValue
-27.419

@<SCITEGIC>MOL_PROPERTY
U
SciTegic.value.DoubleValue
26.493

@<SCITEGIC>MOL_PROPERTY
W
SciTegic.value.DoubleValue
-53.912

@<SCITEGIC>MOL_PROPERTY
W(PB)
SciTegic.value.DoubleValue
-56.219

@<SCITEGIC>MOL_PROPERTY
W(SA)
SciTegic.value.DoubleValue
2.307

@<SCITEGIC>MOL_PROPERTY
Valence
SciTegic.value.DoubleValue
4.731

@<SCITEGIC>MOL_PROPERTY
Coulomb
SciTegic.value.DoubleValue
20.826

@<SCITEGIC>MOL_PROPERTY
VdW
SciTegic.value.DoubleValue
0.936

@<SCITEGIC>MOL_PROPERTY
VdW6
SciTegic.value.DoubleValue
-7.662

@<SCITEGIC>MOL_PROPERTY
VdW12
SciTegic.value.DoubleValue
8.597

@<SCITEGIC>MOL_PROPERTY
Bond
SciTegic.value.DoubleValue
0.241

@<SCITEGIC>MOL_PROPERTY
Angle
SciTegic.value.DoubleValue
1.433

@<SCITEGIC>MOL_PROPERTY
Pdih
SciTegic.value.DoubleValue
3.057

@<SCITEGIC>MOL_PROPERTY
Idih
SciTegic.value.DoubleValue
0.000

@<SCITEGIC>MOL_PROPERTY
Tether
SciTegic.value.DoubleValue
0.000

@<TRIPOS>MOLECULE
guest-s13_vm2.mol2 : vm2 ligand conformer 33
          26          25           1
SMALL
USER_CHARGES
 
@<TRIPOS>ATOM
       1    C1      21.362922   19.246080   19.930144 C.3        1 MOL1        -0.2398
       2    H1      22.222357   18.910447   20.524821 H          1 MOL1         0.0972
       3    H2      21.644560   19.187025   18.870841 H          1 MOL1         0.0972
       4    H3      21.174514   20.301520   20.162605 H          1 MOL1         0.0972
       5    C2      20.118635   18.372437   20.208098 C.3        1 MOL1        -0.1383
       6    H4      20.315950   17.351439   19.852463 H          1 MOL1         0.0961
       7    H5      19.267610   18.743197   19.619819 H          1 MOL1         0.0961
       8    C3      19.734468   18.311740   21.706060 C.3        1 MOL1        -0.1407
       9    H6      18.914115   17.590369   21.823795 H          1 MOL1         0.0961
      10    H7      20.582963   17.909749   22.270089 H          1 MOL1         0.0961
      11    C4      19.289215   19.682956   22.277978 C.3        1 MOL1        -0.1407
      12    H8      18.515245   20.092460   21.614190 H          1 MOL1         0.0961
      13    H9      20.119712   20.400940   22.255768 H          1 MOL1         0.0961
      14    C5      18.701399   19.613299   23.712545 C.3        1 MOL1        -0.1472
      15    H10     18.034106   20.476632   23.836998 H          1 MOL1         0.0961
      16    H11     18.065509   18.724963   23.822514 H          1 MOL1         0.0961
      17    C6      19.753405   19.665947   24.845574 C.3        1 MOL1         0.1190
      18    H12     20.384332   20.545502   24.684578 H          1 MOL1         0.0923
      19    C7      19.057199   19.819307   26.207758 C.3        1 MOL1        -0.2463
      20    H13     18.442399   20.727670   26.232500 H          1 MOL1         0.0972
      21    H14     19.795745   19.896897   27.015181 H          1 MOL1         0.0972
      22    H15     18.407405   18.961064   26.420182 H          1 MOL1         0.0972
      23    N1      20.670755   18.476233   24.865843 N.4        1 MOL1        -0.5974
      24    H16     21.195235   18.400053   23.990996 H          1 MOL1         0.3625
      25    H17     21.352093   18.542738   25.627254 H          1 MOL1         0.3625
      26    H18     20.149183   17.605284   24.994546 H          1 MOL1         0.3625
@<TRIPOS>BOND
    1     1     2    1
    2     1     3    1
    3     1     4    1
    4     1     5    1
    5     5     6    1
    6     5     7    1
    7     5     8    1
    8     8     9    1
    9     8    10    1
   10     8    11    1
   11    11    12    1
   12    11    13    1
   13    11    14    1
   14    14    15    1
   15    14    16    1
   16    14    17    1
   17    17    18    1
   18    17    19    1
   19    19    20    1
   20    19    21    1
   21    19    22    1
   22    17    23    1
   23    23    24    1
   24    23    25    1
   25    23    26    1
@<TRIPOS>SUBSTRUCTURE
       1 MOL1            1 RESIDUE      1      MOL     
@<SCITEGIC>MOL_PROPERTY
VM2 Rank
SciTegic.value.IntegerValue
33

@<SCITEGIC>MOL_PROPERTY
Conf_Id
SciTegic.value.IntegerValue
243

@<SCITEGIC>MOL_PROPERTY
Probability
SciTegic.value.DoubleValue
0.12

@<SCITEGIC>MOL_PROPERTY
Sum Probability
SciTegic.value.DoubleValue
98.64

@<SCITEGIC>MOL_PROPERTY
Delta G
SciTegic.value.DoubleValue
2.969

@<SCITEGIC>MOL_PROPERTY
G
SciTegic.value.DoubleValue
26.679

@<SCITEGIC>MOL_PROPERTY
E
SciTegic.value.DoubleValue
-5.409

@<SCITEGIC>MOL_PROPERTY
-TS
SciTegic.value.DoubleValue
32.087

@<SCITEGIC>MOL_PROPERTY
U+W
SciTegic.value.DoubleValue
-26.870

@<SCITEGIC>MOL_PROPERTY
U
SciTegic.value.DoubleValue
27.054

@<SCITEGIC>MOL_PROPERTY
W
SciTegic.value.DoubleValue
-53.925

@<SCITEGIC>MOL_PROPERTY
W(PB)
SciTegic.value.DoubleValue
-56.216

@<SCITEGIC>MOL_PROPERTY
W(SA)
SciTegic.value.DoubleValue
2.291

@<SCITEGIC>MOL_PROPERTY
Valence
SciTegic.value.DoubleValue
5.137

@<SCITEGIC>MOL_PROPERTY
Coulomb
SciTegic.value.DoubleValue
20.886

@<SCITEGIC>MOL_PROPERTY
VdW
SciTegic.value.DoubleValue
1.031

@<SCITEGIC>MOL_PROPERTY
VdW6
SciTegic.value.DoubleValue
-8.326

@<SCITEGIC>MOL_PROPERTY
VdW12
SciTegic.value.DoubleValue
9.357

@<SCITEGIC>MOL_PROPERTY
Bond
SciTegic.value.DoubleValue
0.283

@<SCITEGIC>MOL_PROPERTY
Angle
SciTegic.value.DoubleValue
1.710

@<SCITEGIC>MOL_PROPERTY
Pdih
SciTegic.value.DoubleValue
3.144

@<SCITEGIC>MOL_PROPERTY
Idih
SciTegic.value.DoubleValue
0.000

@<SCITEGIC>MOL_PROPERTY
Tether
SciTegic.value.DoubleValue
0.000

@<TRIPOS>MOLECULE
guest-s13_vm2.mol2 : vm2 ligand conformer 34
          26          25           1
SMALL
USER_CHARGES
 
@<TRIPOS>ATOM
       1    C1      21.153619   18.070935   19.580817 C.3        1 MOL1        -0.2398
       2    H1      22.128332   17.983338   20.078277 H          1 MOL1         0.0972
       3    H2      20.653290   17.095196   19.634241 H          1 MOL1         0.0972
       4    H3      21.335147   18.298779   18.522429 H          1 MOL1         0.0972
       5    C2      20.292947   19.172435   20.235203 C.3        1 MOL1        -0.1383
       6    H4      19.340985   19.260127   19.692957 H          1 MOL1         0.0961
       7    H5      20.803780   20.140710   20.137634 H          1 MOL1         0.0961
       8    C3      20.020101   18.874552   21.726220 C.3        1 MOL1        -0.1407
       9    H6      19.501690   17.909796   21.815555 H          1 MOL1         0.0961
      10    H7      20.982489   18.782287   22.244058 H          1 MOL1         0.0961
      11    C4      19.171427   19.987202   22.386552 C.3        1 MOL1        -0.1407
      12    H8      18.297733   20.188228   21.751152 H          1 MOL1         0.0961
      13    H9      19.749331   20.921444   22.413175 H          1 MOL1         0.0961
      14    C5      18.657198   19.656912   23.812733 C.3        1 MOL1        -0.1472
      15    H10     17.987167   20.474613   24.110310 H          1 MOL1         0.0961
      16    H11     18.034087   18.753089   23.790960 H          1 MOL1         0.0961
      17    C6      19.762961   19.510001   24.885025 C.3        1 MOL1         0.1190
      18    H12     20.527160   20.271052   24.699540 H          1 MOL1         0.0923
      19    C7      19.181525   19.744539   26.289189 C.3        1 MOL1        -0.2463
      20    H13     18.749604   20.749806   26.370741 H          1 MOL1         0.0972
      21    H14     19.963859   19.658087   27.053348 H          1 MOL1         0.0972
      22    H15     18.395435   19.014666   26.520176 H          1 MOL1         0.0972
      23    N1      20.448223   18.171423   24.838261 N.4        1 MOL1        -0.5974
      24    H16     21.204164   18.114302   25.526639 H          1 MOL1         0.3625
      25    H17     19.793167   17.411560   25.040389 H          1 MOL1         0.3625
      26    H18     20.854715   17.990456   23.917802 H          1 MOL1         0.3625
@<TRIPOS>BOND
    1     1     2    1
    2     1     3    1
    3     1     4    1
    4     1     5    1
    5     5     6    1
    6     5     7    1
    7     5     8    1
    8     8     9    1
    9     8    10    1
   10     8    11    1
   11    11    12    1
   12    11    13    1
   13    11    14    1
   14    14    15    1
   15    14    16    1
   16    14    17    1
   17    17    18    1
   18    17    19    1
   19    19    20    1
   20    19    21    1
   21    19    22    1
   22    17    23    1
   23    23    24    1
   24    23    25    1
   25    23    26    1
@<TRIPOS>SUBSTRUCTURE
       1 MOL1            1 RESIDUE      1      MOL     
@<SCITEGIC>MOL_PROPERTY
VM2 Rank
SciTegic.value.IntegerValue
34

@<SCITEGIC>MOL_PROPERTY
Conf_Id
SciTegic.value.IntegerValue
997

@<SCITEGIC>MOL_PROPERTY
Probability
SciTegic.value.DoubleValue
0.11

@<SCITEGIC>MOL_PROPERTY
Sum Probability
SciTegic.value.DoubleValue
98.75

@<SCITEGIC>MOL_PROPERTY
Delta G
SciTegic.value.DoubleValue
3.004

@<SCITEGIC>MOL_PROPERTY
G
SciTegic.value.DoubleValue
26.714

@<SCITEGIC>MOL_PROPERTY
E
SciTegic.value.DoubleValue
-5.843

@<SCITEGIC>MOL_PROPERTY
-TS
SciTegic.value.DoubleValue
32.556

@<SCITEGIC>MOL_PROPERTY
U+W
SciTegic.value.DoubleValue
-27.304

@<SCITEGIC>MOL_PROPERTY
U
SciTegic.value.DoubleValue
26.574

@<SCITEGIC>MOL_PROPERTY
W
SciTegic.value.DoubleValue
-53.879

@<SCITEGIC>MOL_PROPERTY
W(PB)
SciTegic.value.DoubleValue
-56.194

@<SCITEGIC>MOL_PROPERTY
W(SA)
SciTegic.value.DoubleValue
2.316

@<SCITEGIC>MOL_PROPERTY
Valence
SciTegic.value.DoubleValue
4.532

@<SCITEGIC>MOL_PROPERTY
Coulomb
SciTegic.value.DoubleValue
21.136

@<SCITEGIC>MOL_PROPERTY
VdW
SciTegic.value.DoubleValue
0.906

@<SCITEGIC>MOL_PROPERTY
VdW6
SciTegic.value.DoubleValue
-7.878

@<SCITEGIC>MOL_PROPERTY
VdW12
SciTegic.value.DoubleValue
8.784

@<SCITEGIC>MOL_PROPERTY
Bond
SciTegic.value.DoubleValue
0.227

@<SCITEGIC>MOL_PROPERTY
Angle
SciTegic.value.DoubleValue
1.591

@<SCITEGIC>MOL_PROPERTY
Pdih
SciTegic.value.DoubleValue
2.714

@<SCITEGIC>MOL_PROPERTY
Idih
SciTegic.value.DoubleValue
0.000

@<SCITEGIC>MOL_PROPERTY
Tether
SciTegic.value.DoubleValue
0.000

@<TRIPOS>MOLECULE
guest-s13_vm2.mol2 : vm2 ligand conformer 35
          26          25           1
SMALL
USER_CHARGES
 
@<TRIPOS>ATOM
       1    C1      20.741232   19.789150   19.693109 C.3        1 MOL1        -0.2398
       2    H1      19.803724   20.028997   19.174629 H          1 MOL1         0.0972
       3    H2      21.406778   20.657686   19.605205 H          1 MOL1         0.0972
       4    H3      21.215381   18.947917   19.170869 H          1 MOL1         0.0972
       5    C2      20.483112   19.448435   21.176163 C.3        1 MOL1        -0.1383
       6    H4      20.046573   20.328388   21.665896 H          1 MOL1         0.0961
       7    H5      21.440198   19.237612   21.673217 H          1 MOL1         0.0961
       8    C3      19.533568   18.237630   21.325330 C.3        1 MOL1        -0.1407
       9    H6      18.540779   18.503848   20.937042 H          1 MOL1         0.0961
      10    H7      19.898799   17.419184   20.689561 H          1 MOL1         0.0961
      11    C4      19.395017   17.697053   22.772267 C.3        1 MOL1        -0.1407
      12    H8      20.362751   17.317506   23.124167 H          1 MOL1         0.0961
      13    H9      18.735021   16.819465   22.731811 H          1 MOL1         0.0961
      14    C5      18.790488   18.700824   23.791697 C.3        1 MOL1        -0.1472
      15    H10     17.997282   19.278935   23.299255 H          1 MOL1         0.0961
      16    H11     18.296287   18.134643   24.592420 H          1 MOL1         0.0961
      17    C6      19.815343   19.661237   24.439243 C.3        1 MOL1         0.1190
      18    H12     20.365701   20.178152   23.650212 H          1 MOL1         0.0923
      19    C7      19.091139   20.719311   25.286695 C.3        1 MOL1        -0.2463
      20    H13     18.390992   21.298528   24.671844 H          1 MOL1         0.0972
      21    H14     19.808809   21.423406   25.725534 H          1 MOL1         0.0972
      22    H15     18.524835   20.254688   26.103611 H          1 MOL1         0.0972
      23    N1      20.838101   18.934360   25.269496 N.4        1 MOL1        -0.5974
      24    H16     21.360538   18.254891   24.710492 H          1 MOL1         0.3625
      25    H17     21.517724   19.582147   25.677987 H          1 MOL1         0.3625
      26    H18     20.398793   18.425525   26.041123 H          1 MOL1         0.3625
@<TRIPOS>BOND
    1     1     2    1
    2     1     3    1
    3     1     4    1
    4     1     5    1
    5     5     6    1
    6     5     7    1
    7     5     8    1
    8     8     9    1
    9     8    10    1
   10     8    11    1
   11    11    12    1
   12    11    13    1
   13    11    14    1
   14    14    15    1
   15    14    16    1
   16    14    17    1
   17    17    18    1
   18    17    19    1
   19    19    20    1
   20    19    21    1
   21    19    22    1
   22    17    23    1
   23    23    24    1
   24    23    25    1
   25    23    26    1
@<TRIPOS>SUBSTRUCTURE
       1 MOL1            1 RESIDUE      1      MOL     
@<SCITEGIC>MOL_PROPERTY
VM2 Rank
SciTegic.value.IntegerValue
35

@<SCITEGIC>MOL_PROPERTY
Conf_Id
SciTegic.value.IntegerValue
1024

@<SCITEGIC>MOL_PROPERTY
Probability
SciTegic.value.DoubleValue
0.07

@<SCITEGIC>MOL_PROPERTY
Sum Probability
SciTegic.value.DoubleValue
98.82

@<SCITEGIC>MOL_PROPERTY
Delta G
SciTegic.value.DoubleValue
3.252

@<SCITEGIC>MOL_PROPERTY
G
SciTegic.value.DoubleValue
26.961

@<SCITEGIC>MOL_PROPERTY
E
SciTegic.value.DoubleValue
-5.912

@<SCITEGIC>MOL_PROPERTY
-TS
SciTegic.value.DoubleValue
32.873

@<SCITEGIC>MOL_PROPERTY
U+W
SciTegic.value.DoubleValue
-27.374

@<SCITEGIC>MOL_PROPERTY
U
SciTegic.value.DoubleValue
26.753

@<SCITEGIC>MOL_PROPERTY
W
SciTegic.value.DoubleValue
-54.126

@<SCITEGIC>MOL_PROPERTY
W(PB)
SciTegic.value.DoubleValue
-56.393

@<SCITEGIC>MOL_PROPERTY
W(SA)
SciTegic.value.DoubleValue
2.267

@<SCITEGIC>MOL_PROPERTY
Valence
SciTegic.value.DoubleValue
5.252

@<SCITEGIC>MOL_PROPERTY
Coulomb
SciTegic.value.DoubleValue
20.764

@<SCITEGIC>MOL_PROPERTY
VdW
SciTegic.value.DoubleValue
0.737

@<SCITEGIC>MOL_PROPERTY
VdW6
SciTegic.value.DoubleValue
-8.685

@<SCITEGIC>MOL_PROPERTY
VdW12
SciTegic.value.DoubleValue
9.422

@<SCITEGIC>MOL_PROPERTY
Bond
SciTegic.value.DoubleValue
0.256

@<SCITEGIC>MOL_PROPERTY
Angle
SciTegic.value.DoubleValue
1.802

@<SCITEGIC>MOL_PROPERTY
Pdih
SciTegic.value.DoubleValue
3.193

@<SCITEGIC>MOL_PROPERTY
Idih
SciTegic.value.DoubleValue
0.000

@<SCITEGIC>MOL_PROPERTY
Tether
SciTegic.value.DoubleValue
0.000

@<TRIPOS>MOLECULE
guest-s13_vm2.mol2 : vm2 ligand conformer 36
          26          25           1
SMALL
USER_CHARGES
 
@<TRIPOS>ATOM
       1    C1      20.316222   17.794033   19.662794 C.3        1 MOL1        -0.2398
       2    H1      19.773673   16.928013   20.063835 H          1 MOL1         0.0972
       3    H2      20.096427   17.861395   18.589392 H          1 MOL1         0.0972
       4    H3      21.391964   17.605874   19.775127 H          1 MOL1         0.0972
       5    C2      19.901663   19.092912   20.386149 C.3        1 MOL1        -0.1383
       6    H4      18.828584   19.271294   20.229102 H          1 MOL1         0.0961
       7    H5      20.433467   19.944195   19.938457 H          1 MOL1         0.0961
       8    C3      20.203167   19.025471   21.899585 C.3        1 MOL1        -0.1407
       9    H6      19.671616   18.165063   22.323420 H          1 MOL1         0.0961
      10    H7      21.278288   18.855491   22.049711 H          1 MOL1         0.0961
      11    C4      19.773559   20.321272   22.627805 C.3        1 MOL1        -0.1407
      12    H8      18.683722   20.439035   22.560786 H          1 MOL1         0.0961
      13    H9      20.197809   21.181506   22.091808 H          1 MOL1         0.0961
      14    C5      20.230404   20.415994   24.111061 C.3        1 MOL1        -0.1472
      15    H10     21.327446   20.422802   24.152762 H          1 MOL1         0.0961
      16    H11     19.919281   21.397068   24.493477 H          1 MOL1         0.0961
      17    C6      19.696704   19.341958   25.093272 C.3        1 MOL1         0.1190
      18    H12     19.934212   19.692414   26.102502 H          1 MOL1         0.0923
      19    C7      18.168825   19.178653   25.013180 C.3        1 MOL1        -0.2463
      20    H13     17.810080   18.522505   25.815581 H          1 MOL1         0.0972
      21    H14     17.857672   18.740501   24.057358 H          1 MOL1         0.0972
      22    H15     17.668018   20.148071   25.126980 H          1 MOL1         0.0972
      23    N1      20.397456   18.017706   24.960155 N.4        1 MOL1        -0.5974
      24    H16     20.065218   17.347651   25.659589 H          1 MOL1         0.3625
      25    H17     20.241264   17.604793   24.038548 H          1 MOL1         0.3625
      26    H18     21.408792   18.114935   25.087616 H          1 MOL1         0.3625
@<TRIPOS>BOND
    1     1     2    1
    2     1     3    1
    3     1     4    1
    4     1     5    1
    5     5     6    1
    6     5     7    1
    7     5     8    1
    8     8     9    1
    9     8    10    1
   10     8    11    1
   11    11    12    1
   12    11    13    1
   13    11    14    1
   14    14    15    1
   15    14    16    1
   16    14    17    1
   17    17    18    1
   18    17    19    1
   19    19    20    1
   20    19    21    1
   21    19    22    1
   22    17    23    1
   23    23    24    1
   24    23    25    1
   25    23    26    1
@<TRIPOS>SUBSTRUCTURE
       1 MOL1            1 RESIDUE      1      MOL     
@<SCITEGIC>MOL_PROPERTY
VM2 Rank
SciTegic.value.IntegerValue
36

@<SCITEGIC>MOL_PROPERTY
Conf_Id
SciTegic.value.IntegerValue
207

@<SCITEGIC>MOL_PROPERTY
Probability
SciTegic.value.DoubleValue
0.07

@<SCITEGIC>MOL_PROPERTY
Sum Probability
SciTegic.value.DoubleValue
98.89

@<SCITEGIC>MOL_PROPERTY
Delta G
SciTegic.value.DoubleValue
3.302

@<SCITEGIC>MOL_PROPERTY
G
SciTegic.value.DoubleValue
27.012

@<SCITEGIC>MOL_PROPERTY
E
SciTegic.value.DoubleValue
-6.122

@<SCITEGIC>MOL_PROPERTY
-TS
SciTegic.value.DoubleValue
33.134

@<SCITEGIC>MOL_PROPERTY
U+W
SciTegic.value.DoubleValue
-27.584

@<SCITEGIC>MOL_PROPERTY
U
SciTegic.value.DoubleValue
26.681

@<SCITEGIC>MOL_PROPERTY
W
SciTegic.value.DoubleValue
-54.265

@<SCITEGIC>MOL_PROPERTY
W(PB)
SciTegic.value.DoubleValue
-56.534

@<SCITEGIC>MOL_PROPERTY
W(SA)
SciTegic.value.DoubleValue
2.269

@<SCITEGIC>MOL_PROPERTY
Valence
SciTegic.value.DoubleValue
4.633

@<SCITEGIC>MOL_PROPERTY
Coulomb
SciTegic.value.DoubleValue
21.285

@<SCITEGIC>MOL_PROPERTY
VdW
SciTegic.value.DoubleValue
0.763

@<SCITEGIC>MOL_PROPERTY
VdW6
SciTegic.value.DoubleValue
-8.907

@<SCITEGIC>MOL_PROPERTY
VdW12
SciTegic.value.DoubleValue
9.671

@<SCITEGIC>MOL_PROPERTY
Bond
SciTegic.value.DoubleValue
0.277

@<SCITEGIC>MOL_PROPERTY
Angle
SciTegic.value.DoubleValue
2.161

@<SCITEGIC>MOL_PROPERTY
Pdih
SciTegic.value.DoubleValue
2.194

@<SCITEGIC>MOL_PROPERTY
Idih
SciTegic.value.DoubleValue
0.000

@<SCITEGIC>MOL_PROPERTY
Tether
SciTegic.value.DoubleValue
0.000

@<TRIPOS>MOLECULE
guest-s13_vm2.mol2 : vm2 ligand conformer 37
          26          25           1
SMALL
USER_CHARGES
 
@<TRIPOS>ATOM
       1    C1      19.370091   18.954815   19.119687 C.3        1 MOL1        -0.2398
       2    H1      19.361154   17.864885   18.988514 H          1 MOL1         0.0972
       3    H2      18.344455   19.281784   19.335062 H          1 MOL1         0.0972
       4    H3      19.674487   19.406356   18.166537 H          1 MOL1         0.0972
       5    C2      20.334025   19.369512   20.251505 C.3        1 MOL1        -0.1383
       6    H4      20.346557   20.465224   20.336074 H          1 MOL1         0.0961
       7    H5      21.356038   19.059876   19.991619 H          1 MOL1         0.0961
       8    C3      19.928180   18.746784   21.605583 C.3        1 MOL1        -0.1407
       9    H6      18.902727   19.049377   21.849254 H          1 MOL1         0.0961
      10    H7      19.916955   17.651942   21.513111 H          1 MOL1         0.0961
      11    C4      20.899651   19.155842   22.740078 C.3        1 MOL1        -0.1407
      12    H8      20.976626   20.250056   22.805175 H          1 MOL1         0.0961
      13    H9      21.904060   18.797527   22.474819 H          1 MOL1         0.0961
      14    C5      20.516806   18.565317   24.123229 C.3        1 MOL1        -0.1472
      15    H10     19.965756   17.623978   23.996643 H          1 MOL1         0.0961
      16    H11     21.447069   18.298979   24.642281 H          1 MOL1         0.0961
      17    C6      19.728807   19.526318   25.045991 C.3        1 MOL1         0.1190
      18    H12     20.329717   20.429803   25.188369 H          1 MOL1         0.0923
      19    C7      18.370829   19.942600   24.455988 C.3        1 MOL1        -0.2463
      20    H13     17.760891   19.066222   24.204015 H          1 MOL1         0.0972
      21    H14     18.503920   20.547661   23.551787 H          1 MOL1         0.0972
      22    H15     17.808758   20.554193   25.172437 H          1 MOL1         0.0972
      23    N1      19.539610   18.926813   26.411939 N.4        1 MOL1        -0.5974
      24    H16     20.435299   18.685972   26.845936 H          1 MOL1         0.3625
      25    H17     19.061272   19.576350   27.042576 H          1 MOL1         0.3625
      26    H18     18.978090   18.072127   26.371052 H          1 MOL1         0.3625
@<TRIPOS>BOND
    1     1     2    1
    2     1     3    1
    3     1     4    1
    4     1     5    1
    5     5     6    1
    6     5     7    1
    7     5     8    1
    8     8     9    1
    9     8    10    1
   10     8    11    1
   11    11    12    1
   12    11    13    1
   13    11    14    1
   14    14    15    1
   15    14    16    1
   16    14    17    1
   17    17    18    1
   18    17    19    1
   19    19    20    1
   20    19    21    1
   21    19    22    1
   22    17    23    1
   23    23    24    1
   24    23    25    1
   25    23    26    1
@<TRIPOS>SUBSTRUCTURE
       1 MOL1            1 RESIDUE      1      MOL     
@<SCITEGIC>MOL_PROPERTY
VM2 Rank
SciTegic.value.IntegerValue
37

@<SCITEGIC>MOL_PROPERTY
Conf_Id
SciTegic.value.IntegerValue
172

@<SCITEGIC>MOL_PROPERTY
Probability
SciTegic.value.DoubleValue
0.06

@<SCITEGIC>MOL_PROPERTY
Sum Probability
SciTegic.value.DoubleValue
98.95

@<SCITEGIC>MOL_PROPERTY
Delta G
SciTegic.value.DoubleValue
3.325

@<SCITEGIC>MOL_PROPERTY
G
SciTegic.value.DoubleValue
27.035

@<SCITEGIC>MOL_PROPERTY
E
SciTegic.value.DoubleValue
-5.808

@<SCITEGIC>MOL_PROPERTY
-TS
SciTegic.value.DoubleValue
32.843

@<SCITEGIC>MOL_PROPERTY
U+W
SciTegic.value.DoubleValue
-27.270

@<SCITEGIC>MOL_PROPERTY
U
SciTegic.value.DoubleValue
26.589

@<SCITEGIC>MOL_PROPERTY
W
SciTegic.value.DoubleValue
-53.859

@<SCITEGIC>MOL_PROPERTY
W(PB)
SciTegic.value.DoubleValue
-56.174

@<SCITEGIC>MOL_PROPERTY
W(SA)
SciTegic.value.DoubleValue
2.315

@<SCITEGIC>MOL_PROPERTY
Valence
SciTegic.value.DoubleValue
5.830

@<SCITEGIC>MOL_PROPERTY
Coulomb
SciTegic.value.DoubleValue
19.752

@<SCITEGIC>MOL_PROPERTY
VdW
SciTegic.value.DoubleValue
1.008

@<SCITEGIC>MOL_PROPERTY
VdW6
SciTegic.value.DoubleValue
-7.925

@<SCITEGIC>MOL_PROPERTY
VdW12
SciTegic.value.DoubleValue
8.933

@<SCITEGIC>MOL_PROPERTY
Bond
SciTegic.value.DoubleValue
0.235

@<SCITEGIC>MOL_PROPERTY
Angle
SciTegic.value.DoubleValue
1.652

@<SCITEGIC>MOL_PROPERTY
Pdih
SciTegic.value.DoubleValue
3.943

@<SCITEGIC>MOL_PROPERTY
Idih
SciTegic.value.DoubleValue
0.000

@<SCITEGIC>MOL_PROPERTY
Tether
SciTegic.value.DoubleValue
0.000

@<TRIPOS>MOLECULE
guest-s13_vm2.mol2 : vm2 ligand conformer 38
          26          25           1
SMALL
USER_CHARGES
 
@<TRIPOS>ATOM
       1    C1      19.527921   18.452125   19.249357 C.3        1 MOL1        -0.2398
       2    H1      18.563226   17.996879   19.508849 H          1 MOL1         0.0972
       3    H2      19.334633   19.450109   18.834749 H          1 MOL1         0.0972
       4    H3      19.986701   17.842494   18.460114 H          1 MOL1         0.0972
       5    C2      20.452873   18.533189   20.482269 C.3        1 MOL1        -0.1383
       6    H4      21.420846   18.959927   20.184212 H          1 MOL1         0.0961
       7    H5      20.654491   17.518641   20.853638 H          1 MOL1         0.0961
       8    C3      19.830560   19.386877   21.609276 C.3        1 MOL1        -0.1407
       9    H6      19.631273   20.398789   21.230324 H          1 MOL1         0.0961
      10    H7      18.859782   18.960817   21.888524 H          1 MOL1         0.0961
      11    C4      20.761176   19.474138   22.843924 C.3        1 MOL1        -0.1407
      12    H8      21.709419   19.926920   22.522550 H          1 MOL1         0.0961
      13    H9      21.014625   18.467223   23.199888 H          1 MOL1         0.0961
      14    C5      20.178928   20.334196   24.000466 C.3        1 MOL1        -0.1472
      15    H10     21.007468   20.870927   24.481062 H          1 MOL1         0.0961
      16    H11     19.526673   21.117375   23.592144 H          1 MOL1         0.0961
      17    C6      19.422209   19.561812   25.109719 C.3        1 MOL1         0.1190
      18    H12     19.070148   20.303419   25.833508 H          1 MOL1         0.0923
      19    C7      18.188897   18.810876   24.582428 C.3        1 MOL1        -0.2463
      20    H13     17.539957   19.481742   24.006050 H          1 MOL1         0.0972
      21    H14     17.598090   18.412430   25.416265 H          1 MOL1         0.0972
      22    H15     18.475036   17.966910   23.943682 H          1 MOL1         0.0972
      23    N1      20.325436   18.634786   25.876561 N.4        1 MOL1        -0.5974
      24    H16     19.827718   18.181267   26.647914 H          1 MOL1         0.3625
      25    H17     20.698247   17.895903   25.275639 H          1 MOL1         0.3625
      26    H18     21.122437   19.135281   26.279977 H          1 MOL1         0.3625
@<TRIPOS>BOND
    1     1     2    1
    2     1     3    1
    3     1     4    1
    4     1     5    1
    5     5     6    1
    6     5     7    1
    7     5     8    1
    8     8     9    1
    9     8    10    1
   10     8    11    1
   11    11    12    1
   12    11    13    1
   13    11    14    1
   14    14    15    1
   15    14    16    1
   16    14    17    1
   17    17    18    1
   18    17    19    1
   19    19    20    1
   20    19    21    1
   21    19    22    1
   22    17    23    1
   23    23    24    1
   24    23    25    1
   25    23    26    1
@<TRIPOS>SUBSTRUCTURE
       1 MOL1            1 RESIDUE      1      MOL     
@<SCITEGIC>MOL_PROPERTY
VM2 Rank
SciTegic.value.IntegerValue
38

@<SCITEGIC>MOL_PROPERTY
Conf_Id
SciTegic.value.IntegerValue
808

@<SCITEGIC>MOL_PROPERTY
Probability
SciTegic.value.DoubleValue
0.06

@<SCITEGIC>MOL_PROPERTY
Sum Probability
SciTegic.value.DoubleValue
99.02

@<SCITEGIC>MOL_PROPERTY
Delta G
SciTegic.value.DoubleValue
3.340

@<SCITEGIC>MOL_PROPERTY
G
SciTegic.value.DoubleValue
27.049

@<SCITEGIC>MOL_PROPERTY
E
SciTegic.value.DoubleValue
-5.858

@<SCITEGIC>MOL_PROPERTY
-TS
SciTegic.value.DoubleValue
32.907

@<SCITEGIC>MOL_PROPERTY
U+W
SciTegic.value.DoubleValue
-27.320

@<SCITEGIC>MOL_PROPERTY
U
SciTegic.value.DoubleValue
26.848

@<SCITEGIC>MOL_PROPERTY
W
SciTegic.value.DoubleValue
-54.168

@<SCITEGIC>MOL_PROPERTY
W(PB)
SciTegic.value.DoubleValue
-56.427

@<SCITEGIC>MOL_PROPERTY
W(SA)
SciTegic.value.DoubleValue
2.259

@<SCITEGIC>MOL_PROPERTY
Valence
SciTegic.value.DoubleValue
5.824

@<SCITEGIC>MOL_PROPERTY
Coulomb
SciTegic.value.DoubleValue
20.057

@<SCITEGIC>MOL_PROPERTY
VdW
SciTegic.value.DoubleValue
0.968

@<SCITEGIC>MOL_PROPERTY
VdW6
SciTegic.value.DoubleValue
-8.367

@<SCITEGIC>MOL_PROPERTY
VdW12
SciTegic.value.DoubleValue
9.334

@<SCITEGIC>MOL_PROPERTY
Bond
SciTegic.value.DoubleValue
0.267

@<SCITEGIC>MOL_PROPERTY
Angle
SciTegic.value.DoubleValue
1.799

@<SCITEGIC>MOL_PROPERTY
Pdih
SciTegic.value.DoubleValue
3.758

@<SCITEGIC>MOL_PROPERTY
Idih
SciTegic.value.DoubleValue
0.000

@<SCITEGIC>MOL_PROPERTY
Tether
SciTegic.value.DoubleValue
0.000

@<TRIPOS>MOLECULE
guest-s13_vm2.mol2 : vm2 ligand conformer 39
          26          25           1
SMALL
USER_CHARGES
 
@<TRIPOS>ATOM
       1    C1      18.994560   18.448607   20.074566 C.3        1 MOL1        -0.2398
       2    H1      18.742660   19.298513   19.427080 H          1 MOL1         0.0972
       3    H2      18.756744   17.529293   19.523923 H          1 MOL1         0.0972
       4    H3      18.340007   18.487381   20.951966 H          1 MOL1         0.0972
       5    C2      20.491747   18.474374   20.461501 C.3        1 MOL1        -0.1383
       6    H4      21.080621   18.397461   19.536716 H          1 MOL1         0.0961
       7    H5      20.747778   17.587030   21.057003 H          1 MOL1         0.0961
       8    C3      20.914774   19.765588   21.208509 C.3        1 MOL1        -0.1407
       9    H6      21.942091   20.012860   20.906966 H          1 MOL1         0.0961
      10    H7      20.298641   20.614009   20.880281 H          1 MOL1         0.0961
      11    C4      20.897070   19.658620   22.755288 C.3        1 MOL1        -0.1407
      12    H8      21.285322   20.599770   23.168930 H          1 MOL1         0.0961
      13    H9      21.597700   18.872707   23.067571 H          1 MOL1         0.0961
      14    C5      19.497206   19.385029   23.358324 C.3        1 MOL1        -0.1472
      15    H10     18.777171   20.090487   22.922834 H          1 MOL1         0.0961
      16    H11     19.164314   18.376019   23.084952 H          1 MOL1         0.0961
      17    C6      19.468406   19.528110   24.895284 C.3        1 MOL1         0.1190
      18    H12     19.819227   20.532283   25.152678 H          1 MOL1         0.0923
      19    C7      18.032377   19.369559   25.419927 C.3        1 MOL1        -0.2463
      20    H13     17.367937   20.117309   24.969245 H          1 MOL1         0.0972
      21    H14     17.998914   19.507547   26.507676 H          1 MOL1         0.0972
      22    H15     17.632782   18.374101   25.189088 H          1 MOL1         0.0972
      23    N1      20.391859   18.558113   25.580600 N.4        1 MOL1        -0.5974
      24    H16     20.377266   18.681862   26.596898 H          1 MOL1         0.3625
      25    H17     20.126756   17.589071   25.386000 H          1 MOL1         0.3625
      26    H18     21.359622   18.681467   25.271282 H          1 MOL1         0.3625
@<TRIPOS>BOND
    1     1     2    1
    2     1     3    1
    3     1     4    1
    4     1     5    1
    5     5     6    1
    6     5     7    1
    7     5     8    1
    8     8     9    1
    9     8    10    1
   10     8    11    1
   11    11    12    1
   12    11    13    1
   13    11    14    1
   14    14    15    1
   15    14    16    1
   16    14    17    1
   17    17    18    1
   18    17    19    1
   19    19    20    1
   20    19    21    1
   21    19    22    1
   22    17    23    1
   23    23    24    1
   24    23    25    1
   25    23    26    1
@<TRIPOS>SUBSTRUCTURE
       1 MOL1            1 RESIDUE      1      MOL     
@<SCITEGIC>MOL_PROPERTY
VM2 Rank
SciTegic.value.IntegerValue
39

@<SCITEGIC>MOL_PROPERTY
Conf_Id
SciTegic.value.IntegerValue
241

@<SCITEGIC>MOL_PROPERTY
Probability
SciTegic.value.DoubleValue
0.06

@<SCITEGIC>MOL_PROPERTY
Sum Probability
SciTegic.value.DoubleValue
99.08

@<SCITEGIC>MOL_PROPERTY
Delta G
SciTegic.value.DoubleValue
3.348

@<SCITEGIC>MOL_PROPERTY
G
SciTegic.value.DoubleValue
27.058

@<SCITEGIC>MOL_PROPERTY
E
SciTegic.value.DoubleValue
-5.843

@<SCITEGIC>MOL_PROPERTY
-TS
SciTegic.value.DoubleValue
32.901

@<SCITEGIC>MOL_PROPERTY
U+W
SciTegic.value.DoubleValue
-27.305

@<SCITEGIC>MOL_PROPERTY
U
SciTegic.value.DoubleValue
26.796

@<SCITEGIC>MOL_PROPERTY
W
SciTegic.value.DoubleValue
-54.101

@<SCITEGIC>MOL_PROPERTY
W(PB)
SciTegic.value.DoubleValue
-56.405

@<SCITEGIC>MOL_PROPERTY
W(SA)
SciTegic.value.DoubleValue
2.304

@<SCITEGIC>MOL_PROPERTY
Valence
SciTegic.value.DoubleValue
5.706

@<SCITEGIC>MOL_PROPERTY
Coulomb
SciTegic.value.DoubleValue
20.107

@<SCITEGIC>MOL_PROPERTY
VdW
SciTegic.value.DoubleValue
0.982

@<SCITEGIC>MOL_PROPERTY
VdW6
SciTegic.value.DoubleValue
-8.397

@<SCITEGIC>MOL_PROPERTY
VdW12
SciTegic.value.DoubleValue
9.379

@<SCITEGIC>MOL_PROPERTY
Bond
SciTegic.value.DoubleValue
0.254

@<SCITEGIC>MOL_PROPERTY
Angle
SciTegic.value.DoubleValue
1.644

@<SCITEGIC>MOL_PROPERTY
Pdih
SciTegic.value.DoubleValue
3.808

@<SCITEGIC>MOL_PROPERTY
Idih
SciTegic.value.DoubleValue
0.000

@<SCITEGIC>MOL_PROPERTY
Tether
SciTegic.value.DoubleValue
0.000

@<TRIPOS>MOLECULE
guest-s13_vm2.mol2 : vm2 ligand conformer 40
          26          25           1
SMALL
USER_CHARGES
 
@<TRIPOS>ATOM
       1    C1      19.495438   20.015206   20.147395 C.3        1 MOL1        -0.2398
       2    H1      19.691778   20.713884   20.969983 H          1 MOL1         0.0972
       3    H2      19.560289   20.584824   19.211331 H          1 MOL1         0.0972
       4    H3      18.467703   19.641596   20.242355 H          1 MOL1         0.0972
       5    C2      20.512630   18.853229   20.143039 C.3        1 MOL1        -0.1383
       6    H4      21.532077   19.261794   20.103723 H          1 MOL1         0.0961
       7    H5      20.381568   18.274007   19.218326 H          1 MOL1         0.0961
       8    C3      20.386137   17.888376   21.349690 C.3        1 MOL1        -0.1407
       9    H6      19.403487   17.396954   21.339345 H          1 MOL1         0.0961
      10    H7      21.120616   17.083597   21.207055 H          1 MOL1         0.0961
      11    C4      20.647490   18.542120   22.731712 C.3        1 MOL1        -0.1407
      12    H8      21.334116   19.392798   22.620833 H          1 MOL1         0.0961
      13    H9      21.168069   17.809390   23.362569 H          1 MOL1         0.0961
      14    C5      19.349609   18.986076   23.455443 C.3        1 MOL1        -0.1472
      15    H10     18.762663   19.636473   22.797283 H          1 MOL1         0.0961
      16    H11     18.722612   18.107668   23.658081 H          1 MOL1         0.0961
      17    C6      19.625485   19.739567   24.774671 C.3        1 MOL1         0.1190
      18    H12     20.270929   20.594829   24.551889 H          1 MOL1         0.0923
      19    C7      18.312240   20.269599   25.372327 C.3        1 MOL1        -0.2463
      20    H13     17.805412   20.940131   24.667164 H          1 MOL1         0.0972
      21    H14     18.504928   20.837490   26.290879 H          1 MOL1         0.0972
      22    H15     17.626661   19.448209   25.615647 H          1 MOL1         0.0972
      23    N1      20.358973   18.893826   25.779723 N.4        1 MOL1        -0.5974
      24    H16     21.257619   18.570631   25.411765 H          1 MOL1         0.3625
      25    H17     20.550424   19.415852   26.639496 H          1 MOL1         0.3625
      26    H18     19.815760   18.066043   26.038476 H          1 MOL1         0.3625
@<TRIPOS>BOND
    1     1     2    1
    2     1     3    1
    3     1     4    1
    4     1     5    1
    5     5     6    1
    6     5     7    1
    7     5     8    1
    8     8     9    1
    9     8    10    1
   10     8    11    1
   11    11    12    1
   12    11    13    1
   13    11    14    1
   14    14    15    1
   15    14    16    1
   16    14    17    1
   17    17    18    1
   18    17    19    1
   19    19    20    1
   20    19    21    1
   21    19    22    1
   22    17    23    1
   23    23    24    1
   24    23    25    1
   25    23    26    1
@<TRIPOS>SUBSTRUCTURE
       1 MOL1            1 RESIDUE      1      MOL     
@<SCITEGIC>MOL_PROPERTY
VM2 Rank
SciTegic.value.IntegerValue
40

@<SCITEGIC>MOL_PROPERTY
Conf_Id
SciTegic.value.IntegerValue
411

@<SCITEGIC>MOL_PROPERTY
Probability
SciTegic.value.DoubleValue
0.06

@<SCITEGIC>MOL_PROPERTY
Sum Probability
SciTegic.value.DoubleValue
99.14

@<SCITEGIC>MOL_PROPERTY
Delta G
SciTegic.value.DoubleValue
3.387

@<SCITEGIC>MOL_PROPERTY
G
SciTegic.value.DoubleValue
27.097

@<SCITEGIC>MOL_PROPERTY
E
SciTegic.value.DoubleValue
-5.838

@<SCITEGIC>MOL_PROPERTY
-TS
SciTegic.value.DoubleValue
32.935

@<SCITEGIC>MOL_PROPERTY
U+W
SciTegic.value.DoubleValue
-27.300

@<SCITEGIC>MOL_PROPERTY
U
SciTegic.value.DoubleValue
26.787

@<SCITEGIC>MOL_PROPERTY
W
SciTegic.value.DoubleValue
-54.087

@<SCITEGIC>MOL_PROPERTY
W(PB)
SciTegic.value.DoubleValue
-56.349

@<SCITEGIC>MOL_PROPERTY
W(SA)
SciTegic.value.DoubleValue
2.262

@<SCITEGIC>MOL_PROPERTY
Valence
SciTegic.value.DoubleValue
5.742

@<SCITEGIC>MOL_PROPERTY
Coulomb
SciTegic.value.DoubleValue
20.023

@<SCITEGIC>MOL_PROPERTY
VdW
SciTegic.value.DoubleValue
1.022

@<SCITEGIC>MOL_PROPERTY
VdW6
SciTegic.value.DoubleValue
-8.392

@<SCITEGIC>MOL_PROPERTY
VdW12
SciTegic.value.DoubleValue
9.414

@<SCITEGIC>MOL_PROPERTY
Bond
SciTegic.value.DoubleValue
0.261

@<SCITEGIC>MOL_PROPERTY
Angle
SciTegic.value.DoubleValue
1.577

@<SCITEGIC>MOL_PROPERTY
Pdih
SciTegic.value.DoubleValue
3.904

@<SCITEGIC>MOL_PROPERTY
Idih
SciTegic.value.DoubleValue
0.000

@<SCITEGIC>MOL_PROPERTY
Tether
SciTegic.value.DoubleValue
0.000

@<TRIPOS>MOLECULE
guest-s13_vm2.mol2 : vm2 ligand conformer 41
          26          25           1
SMALL
USER_CHARGES
 
@<TRIPOS>ATOM
       1    C1      19.573705   17.715714   20.529856 C.3        1 MOL1        -0.2398
       2    H1      18.534275   18.068353   20.520556 H          1 MOL1         0.0972
       3    H2      19.665099   16.919761   19.779539 H          1 MOL1         0.0972
       4    H3      19.783493   17.267442   21.508585 H          1 MOL1         0.0972
       5    C2      20.555726   18.865833   20.217853 C.3        1 MOL1        -0.1383
       6    H4      20.427843   19.162463   19.167413 H          1 MOL1         0.0961
       7    H5      21.587463   18.497792   20.306052 H          1 MOL1         0.0961
       8    C3      20.373790   20.121862   21.107881 C.3        1 MOL1        -0.1407
       9    H6      21.090859   20.878552   20.760503 H          1 MOL1         0.0961
      10    H7      19.379706   20.559818   20.943510 H          1 MOL1         0.0961
      11    C4      20.616723   19.886170   22.621615 C.3        1 MOL1        -0.1407
      12    H8      21.075682   20.791082   23.043666 H          1 MOL1         0.0961
      13    H9      21.350904   19.081080   22.756244 H          1 MOL1         0.0961
      14    C5      19.317000   19.591893   23.415536 C.3        1 MOL1        -0.1472
      15    H10     18.614103   20.420793   23.258436 H          1 MOL1         0.0961
      16    H11     18.822831   18.692372   23.031892 H          1 MOL1         0.0961
      17    C6      19.563488   19.433551   24.931455 C.3        1 MOL1         0.1190
      18    H12     20.073777   20.332151   25.291751 H          1 MOL1         0.0923
      19    C7      18.227134   19.304557   25.679984 C.3        1 MOL1        -0.2463
      20    H13     17.594383   20.183113   25.502541 H          1 MOL1         0.0972
      21    H14     18.393685   19.227948   26.761538 H          1 MOL1         0.0972
      22    H15     17.674289   18.414152   25.355258 H          1 MOL1         0.0972
      23    N1      20.460434   18.268419   25.249821 N.4        1 MOL1        -0.5974
      24    H16     21.370973   18.361506   24.792038 H          1 MOL1         0.3625
      25    H17     20.630618   18.191799   26.256590 H          1 MOL1         0.3625
      26    H18     20.048069   17.384435   24.940575 H          1 MOL1         0.3625
@<TRIPOS>BOND
    1     1     2    1
    2     1     3    1
    3     1     4    1
    4     1     5    1
    5     5     6    1
    6     5     7    1
    7     5     8    1
    8     8     9    1
    9     8    10    1
   10     8    11    1
   11    11    12    1
   12    11    13    1
   13    11    14    1
   14    14    15    1
   15    14    16    1
   16    14    17    1
   17    17    18    1
   18    17    19    1
   19    19    20    1
   20    19    21    1
   21    19    22    1
   22    17    23    1
   23    23    24    1
   24    23    25    1
   25    23    26    1
@<TRIPOS>SUBSTRUCTURE
       1 MOL1            1 RESIDUE      1      MOL     
@<SCITEGIC>MOL_PROPERTY
VM2 Rank
SciTegic.value.IntegerValue
41

@<SCITEGIC>MOL_PROPERTY
Conf_Id
SciTegic.value.IntegerValue
595

@<SCITEGIC>MOL_PROPERTY
Probability
SciTegic.value.DoubleValue
0.05

@<SCITEGIC>MOL_PROPERTY
Sum Probability
SciTegic.value.DoubleValue
99.19

@<SCITEGIC>MOL_PROPERTY
Delta G
SciTegic.value.DoubleValue
3.472

@<SCITEGIC>MOL_PROPERTY
G
SciTegic.value.DoubleValue
27.182

@<SCITEGIC>MOL_PROPERTY
E
SciTegic.value.DoubleValue
-5.704

@<SCITEGIC>MOL_PROPERTY
-TS
SciTegic.value.DoubleValue
32.886

@<SCITEGIC>MOL_PROPERTY
U+W
SciTegic.value.DoubleValue
-27.166

@<SCITEGIC>MOL_PROPERTY
U
SciTegic.value.DoubleValue
27.046

@<SCITEGIC>MOL_PROPERTY
W
SciTegic.value.DoubleValue
-54.212

@<SCITEGIC>MOL_PROPERTY
W(PB)
SciTegic.value.DoubleValue
-56.480

@<SCITEGIC>MOL_PROPERTY
W(SA)
SciTegic.value.DoubleValue
2.268

@<SCITEGIC>MOL_PROPERTY
Valence
SciTegic.value.DoubleValue
5.686

@<SCITEGIC>MOL_PROPERTY
Coulomb
SciTegic.value.DoubleValue
20.401

@<SCITEGIC>MOL_PROPERTY
VdW
SciTegic.value.DoubleValue
0.959

@<SCITEGIC>MOL_PROPERTY
VdW6
SciTegic.value.DoubleValue
-8.445

@<SCITEGIC>MOL_PROPERTY
VdW12
SciTegic.value.DoubleValue
9.405

@<SCITEGIC>MOL_PROPERTY
Bond
SciTegic.value.DoubleValue
0.263

@<SCITEGIC>MOL_PROPERTY
Angle
SciTegic.value.DoubleValue
1.663

@<SCITEGIC>MOL_PROPERTY
Pdih
SciTegic.value.DoubleValue
3.760

@<SCITEGIC>MOL_PROPERTY
Idih
SciTegic.value.DoubleValue
0.000

@<SCITEGIC>MOL_PROPERTY
Tether
SciTegic.value.DoubleValue
0.000

@<TRIPOS>MOLECULE
guest-s13_vm2.mol2 : vm2 ligand conformer 42
          26          25           1
SMALL
USER_CHARGES
 
@<TRIPOS>ATOM
       1    C1      21.235823   19.328364   19.874130 C.3        1 MOL1        -0.2398
       2    H1      21.862154   20.197596   19.634981 H          1 MOL1         0.0972
       3    H2      21.901656   18.486086   20.103204 H          1 MOL1         0.0972
       4    H3      20.657765   19.072931   18.976443 H          1 MOL1         0.0972
       5    C2      20.304668   19.638714   21.065175 C.3        1 MOL1        -0.1383
       6    H4      19.674556   20.503643   20.815204 H          1 MOL1         0.0961
       7    H5      20.917745   19.933622   21.924048 H          1 MOL1         0.0961
       8    C3      19.408954   18.426432   21.416956 C.3        1 MOL1        -0.1407
       9    H6      18.847092   18.148039   20.514524 H          1 MOL1         0.0961
      10    H7      20.028596   17.554444   21.667561 H          1 MOL1         0.0961
      11    C4      18.388553   18.699636   22.553184 C.3        1 MOL1        -0.1407
      12    H8      17.515115   18.056123   22.378817 H          1 MOL1         0.0961
      13    H9      18.006084   19.726686   22.488257 H          1 MOL1         0.0961
      14    C5      18.906228   18.387740   23.984005 C.3        1 MOL1        -0.1472
      15    H10     18.073616   18.500057   24.691092 H          1 MOL1         0.0961
      16    H11     19.192085   17.328383   24.023583 H          1 MOL1         0.0961
      17    C6      20.097099   19.240205   24.477308 C.3        1 MOL1         0.1190
      18    H12     20.920058   19.128398   23.766837 H          1 MOL1         0.0923
      19    C7      19.731841   20.731661   24.587681 C.3        1 MOL1        -0.2463
      20    H13     18.889644   20.883007   25.274271 H          1 MOL1         0.0972
      21    H14     19.456556   21.150367   23.613137 H          1 MOL1         0.0972
      22    H15     20.584266   21.311465   24.962409 H          1 MOL1         0.0972
      23    N1      20.614835   18.735249   25.795562 N.4        1 MOL1        -0.5974
      24    H16     21.427802   19.272941   26.109244 H          1 MOL1         0.3625
      25    H17     19.903296   18.803456   26.528049 H          1 MOL1         0.3625
      26    H18     20.902985   17.754339   25.737303 H          1 MOL1         0.3625
@<TRIPOS>BOND
    1     1     2    1
    2     1     3    1
    3     1     4    1
    4     1     5    1
    5     5     6    1
    6     5     7    1
    7     5     8    1
    8     8     9    1
    9     8    10    1
   10     8    11    1
   11    11    12    1
   12    11    13    1
   13    11    14    1
   14    14    15    1
   15    14    16    1
   16    14    17    1
   17    17    18    1
   18    17    19    1
   19    19    20    1
   20    19    21    1
   21    19    22    1
   22    17    23    1
   23    23    24    1
   24    23    25    1
   25    23    26    1
@<TRIPOS>SUBSTRUCTURE
       1 MOL1            1 RESIDUE      1      MOL     
@<SCITEGIC>MOL_PROPERTY
VM2 Rank
SciTegic.value.IntegerValue
42

@<SCITEGIC>MOL_PROPERTY
Conf_Id
SciTegic.value.IntegerValue
790

@<SCITEGIC>MOL_PROPERTY
Probability
SciTegic.value.DoubleValue
0.05

@<SCITEGIC>MOL_PROPERTY
Sum Probability
SciTegic.value.DoubleValue
99.24

@<SCITEGIC>MOL_PROPERTY
Delta G
SciTegic.value.DoubleValue
3.476

@<SCITEGIC>MOL_PROPERTY
G
SciTegic.value.DoubleValue
27.186

@<SCITEGIC>MOL_PROPERTY
E
SciTegic.value.DoubleValue
-6.000

@<SCITEGIC>MOL_PROPERTY
-TS
SciTegic.value.DoubleValue
33.186

@<SCITEGIC>MOL_PROPERTY
U+W
SciTegic.value.DoubleValue
-27.461

@<SCITEGIC>MOL_PROPERTY
U
SciTegic.value.DoubleValue
26.923

@<SCITEGIC>MOL_PROPERTY
W
SciTegic.value.DoubleValue
-54.385

@<SCITEGIC>MOL_PROPERTY
W(PB)
SciTegic.value.DoubleValue
-56.636

@<SCITEGIC>MOL_PROPERTY
W(SA)
SciTegic.value.DoubleValue
2.251

@<SCITEGIC>MOL_PROPERTY
Valence
SciTegic.value.DoubleValue
5.932

@<SCITEGIC>MOL_PROPERTY
Coulomb
SciTegic.value.DoubleValue
20.334

@<SCITEGIC>MOL_PROPERTY
VdW
SciTegic.value.DoubleValue
0.657

@<SCITEGIC>MOL_PROPERTY
VdW6
SciTegic.value.DoubleValue
-9.078

@<SCITEGIC>MOL_PROPERTY
VdW12
SciTegic.value.DoubleValue
9.735

@<SCITEGIC>MOL_PROPERTY
Bond
SciTegic.value.DoubleValue
0.268

@<SCITEGIC>MOL_PROPERTY
Angle
SciTegic.value.DoubleValue
2.254

@<SCITEGIC>MOL_PROPERTY
Pdih
SciTegic.value.DoubleValue
3.410

@<SCITEGIC>MOL_PROPERTY
Idih
SciTegic.value.DoubleValue
0.000

@<SCITEGIC>MOL_PROPERTY
Tether
SciTegic.value.DoubleValue
0.000

@<TRIPOS>MOLECULE
guest-s13_vm2.mol2 : vm2 ligand conformer 43
          26          25           1
SMALL
USER_CHARGES
 
@<TRIPOS>ATOM
       1    C1      21.236800   19.153048   19.806848 C.3        1 MOL1        -0.2398
       2    H1      22.250249   19.574844   19.800280 H          1 MOL1         0.0972
       3    H2      21.310438   18.094373   19.525681 H          1 MOL1         0.0972
       4    H3      20.651673   19.671722   19.036243 H          1 MOL1         0.0972
       5    C2      20.589005   19.313255   21.198567 C.3        1 MOL1        -0.1383
       6    H4      20.551236   20.379394   21.462452 H          1 MOL1         0.0961
       7    H5      21.226530   18.814792   21.939973 H          1 MOL1         0.0961
       8    C3      19.166107   18.710249   21.237416 C.3        1 MOL1        -0.1407
       9    H6      18.595493   19.091399   20.379181 H          1 MOL1         0.0961
      10    H7      19.227940   17.621687   21.101523 H          1 MOL1         0.0961
      11    C4      18.363417   19.026817   22.526110 C.3        1 MOL1        -0.1407
      12    H8      17.363575   18.587863   22.403876 H          1 MOL1         0.0961
      13    H9      18.196867   20.107950   22.605606 H          1 MOL1         0.0961
      14    C5      18.974321   18.457311   23.836182 C.3        1 MOL1        -0.1472
      15    H10     18.166931   18.304168   24.564591 H          1 MOL1         0.0961
      16    H11     19.380506   17.458574   23.628761 H          1 MOL1         0.0961
      17    C6      20.066344   19.333189   24.497821 C.3        1 MOL1         0.1190
      18    H12     20.808736   19.605417   23.744663 H          1 MOL1         0.0923
      19    C7      19.485989   20.629043   25.093092 C.3        1 MOL1        -0.2463
      20    H13     18.704678   20.411611   25.831964 H          1 MOL1         0.0972
      21    H14     19.054010   21.270382   24.316921 H          1 MOL1         0.0972
      22    H15     20.271721   21.209645   25.591936 H          1 MOL1         0.0972
      23    N1      20.806017   18.565088   25.557965 N.4        1 MOL1        -0.5974
      24    H16     20.180779   18.275605   26.314828 H          1 MOL1         0.3625
      25    H17     21.240486   17.719313   25.177891 H          1 MOL1         0.3625
      26    H18     21.551470   19.128222   25.977060 H          1 MOL1         0.3625
@<TRIPOS>BOND
    1     1     2    1
    2     1     3    1
    3     1     4    1
    4     1     5    1
    5     5     6    1
    6     5     7    1
    7     5     8    1
    8     8     9    1
    9     8    10    1
   10     8    11    1
   11    11    12    1
   12    11    13    1
   13    11    14    1
   14    14    15    1
   15    14    16    1
   16    14    17    1
   17    17    18    1
   18    17    19    1
   19    19    20    1
   20    19    21    1
   21    19    22    1
   22    17    23    1
   23    23    24    1
   24    23    25    1
   25    23    26    1
@<TRIPOS>SUBSTRUCTURE
       1 MOL1            1 RESIDUE      1      MOL     
@<SCITEGIC>MOL_PROPERTY
VM2 Rank
SciTegic.value.IntegerValue
43

@<SCITEGIC>MOL_PROPERTY
Conf_Id
SciTegic.value.IntegerValue
836

@<SCITEGIC>MOL_PROPERTY
Probability
SciTegic.value.DoubleValue
0.05

@<SCITEGIC>MOL_PROPERTY
Sum Probability
SciTegic.value.DoubleValue
99.28

@<SCITEGIC>MOL_PROPERTY
Delta G
SciTegic.value.DoubleValue
3.523

@<SCITEGIC>MOL_PROPERTY
G
SciTegic.value.DoubleValue
27.233

@<SCITEGIC>MOL_PROPERTY
E
SciTegic.value.DoubleValue
-5.556

@<SCITEGIC>MOL_PROPERTY
-TS
SciTegic.value.DoubleValue
32.788

@<SCITEGIC>MOL_PROPERTY
U+W
SciTegic.value.DoubleValue
-27.018

@<SCITEGIC>MOL_PROPERTY
U
SciTegic.value.DoubleValue
27.379

@<SCITEGIC>MOL_PROPERTY
W
SciTegic.value.DoubleValue
-54.397

@<SCITEGIC>MOL_PROPERTY
W(PB)
SciTegic.value.DoubleValue
-56.652

@<SCITEGIC>MOL_PROPERTY
W(SA)
SciTegic.value.DoubleValue
2.255

@<SCITEGIC>MOL_PROPERTY
Valence
SciTegic.value.DoubleValue
5.926

@<SCITEGIC>MOL_PROPERTY
Coulomb
SciTegic.value.DoubleValue
20.578

@<SCITEGIC>MOL_PROPERTY
VdW
SciTegic.value.DoubleValue
0.876

@<SCITEGIC>MOL_PROPERTY
VdW6
SciTegic.value.DoubleValue
-8.774

@<SCITEGIC>MOL_PROPERTY
VdW12
SciTegic.value.DoubleValue
9.650

@<SCITEGIC>MOL_PROPERTY
Bond
SciTegic.value.DoubleValue
0.273

@<SCITEGIC>MOL_PROPERTY
Angle
SciTegic.value.DoubleValue
2.152

@<SCITEGIC>MOL_PROPERTY
Pdih
SciTegic.value.DoubleValue
3.501

@<SCITEGIC>MOL_PROPERTY
Idih
SciTegic.value.DoubleValue
0.000

@<SCITEGIC>MOL_PROPERTY
Tether
SciTegic.value.DoubleValue
0.000

@<TRIPOS>MOLECULE
guest-s13_vm2.mol2 : vm2 ligand conformer 44
          26          25           1
SMALL
USER_CHARGES
 
@<TRIPOS>ATOM
       1    C1      18.927144   18.992585   19.966412 C.3        1 MOL1        -0.2398
       2    H1      18.866652   17.970165   19.571360 H          1 MOL1         0.0972
       3    H2      18.272866   19.053728   20.842993 H          1 MOL1         0.0972
       4    H3      18.523360   19.668875   19.201888 H          1 MOL1         0.0972
       5    C2      20.389434   19.367779   20.302623 C.3        1 MOL1        -0.1383
       6    H4      20.451268   20.417153   20.622856 H          1 MOL1         0.0961
       7    H5      20.977381   19.300015   19.376526 H          1 MOL1         0.0961
       8    C3      21.032989   18.440137   21.365389 C.3        1 MOL1        -0.1407
       9    H6      20.579998   17.440104   21.321133 H          1 MOL1         0.0961
      10    H7      22.089459   18.297341   21.099037 H          1 MOL1         0.0961
      11    C4      20.987948   18.981441   22.817911 C.3        1 MOL1        -0.1407
      12    H8      21.539638   19.930314   22.869970 H          1 MOL1         0.0961
      13    H9      21.534192   18.274548   23.455787 H          1 MOL1         0.0961
      14    C5      19.557915   19.188363   23.376668 C.3        1 MOL1        -0.1472
      15    H10     19.053791   19.961137   22.783589 H          1 MOL1         0.0961
      16    H11     18.974839   18.264988   23.262447 H          1 MOL1         0.0961
      17    C6      19.545287   19.631999   24.855908 C.3        1 MOL1         0.1190
      18    H12     20.167683   20.527149   24.950964 H          1 MOL1         0.0923
      19    C7      18.115701   19.989911   25.293210 C.3        1 MOL1        -0.2463
      20    H13     17.705940   20.793132   24.668175 H          1 MOL1         0.0972
      21    H14     18.103582   20.339235   26.333018 H          1 MOL1         0.0972
      22    H15     17.448038   19.122620   25.216056 H          1 MOL1         0.0972
      23    N1      20.131583   18.595785   25.775879 N.4        1 MOL1        -0.5974
      24    H16     19.601509   17.721184   25.739135 H          1 MOL1         0.3625
      25    H17     21.100660   18.379740   25.528031 H          1 MOL1         0.3625
      26    H18     20.128999   18.915002   26.748745 H          1 MOL1         0.3625
@<TRIPOS>BOND
    1     1     2    1
    2     1     3    1
    3     1     4    1
    4     1     5    1
    5     5     6    1
    6     5     7    1
    7     5     8    1
    8     8     9    1
    9     8    10    1
   10     8    11    1
   11    11    12    1
   12    11    13    1
   13    11    14    1
   14    14    15    1
   15    14    16    1
   16    14    17    1
   17    17    18    1
   18    17    19    1
   19    19    20    1
   20    19    21    1
   21    19    22    1
   22    17    23    1
   23    23    24    1
   24    23    25    1
   25    23    26    1
@<TRIPOS>SUBSTRUCTURE
       1 MOL1            1 RESIDUE      1      MOL     
@<SCITEGIC>MOL_PROPERTY
VM2 Rank
SciTegic.value.IntegerValue
44

@<SCITEGIC>MOL_PROPERTY
Conf_Id
SciTegic.value.IntegerValue
822

@<SCITEGIC>MOL_PROPERTY
Probability
SciTegic.value.DoubleValue
0.05

@<SCITEGIC>MOL_PROPERTY
Sum Probability
SciTegic.value.DoubleValue
99.33

@<SCITEGIC>MOL_PROPERTY
Delta G
SciTegic.value.DoubleValue
3.529

@<SCITEGIC>MOL_PROPERTY
G
SciTegic.value.DoubleValue
27.239

@<SCITEGIC>MOL_PROPERTY
E
SciTegic.value.DoubleValue
-5.653

@<SCITEGIC>MOL_PROPERTY
-TS
SciTegic.value.DoubleValue
32.892

@<SCITEGIC>MOL_PROPERTY
U+W
SciTegic.value.DoubleValue
-27.115

@<SCITEGIC>MOL_PROPERTY
U
SciTegic.value.DoubleValue
26.879

@<SCITEGIC>MOL_PROPERTY
W
SciTegic.value.DoubleValue
-53.994

@<SCITEGIC>MOL_PROPERTY
W(PB)
SciTegic.value.DoubleValue
-56.259

@<SCITEGIC>MOL_PROPERTY
W(SA)
SciTegic.value.DoubleValue
2.265

@<SCITEGIC>MOL_PROPERTY
Valence
SciTegic.value.DoubleValue
5.789

@<SCITEGIC>MOL_PROPERTY
Coulomb
SciTegic.value.DoubleValue
20.012

@<SCITEGIC>MOL_PROPERTY
VdW
SciTegic.value.DoubleValue
1.078

@<SCITEGIC>MOL_PROPERTY
VdW6
SciTegic.value.DoubleValue
-8.363

@<SCITEGIC>MOL_PROPERTY
VdW12
SciTegic.value.DoubleValue
9.442

@<SCITEGIC>MOL_PROPERTY
Bond
SciTegic.value.DoubleValue
0.261

@<SCITEGIC>MOL_PROPERTY
Angle
SciTegic.value.DoubleValue
1.699

@<SCITEGIC>MOL_PROPERTY
Pdih
SciTegic.value.DoubleValue
3.828

@<SCITEGIC>MOL_PROPERTY
Idih
SciTegic.value.DoubleValue
0.000

@<SCITEGIC>MOL_PROPERTY
Tether
SciTegic.value.DoubleValue
0.000

@<TRIPOS>MOLECULE
guest-s13_vm2.mol2 : vm2 ligand conformer 45
          26          25           1
SMALL
USER_CHARGES
 
@<TRIPOS>ATOM
       1    C1      19.298954   19.846699   20.286889 C.3        1 MOL1        -0.2398
       2    H1      18.416835   19.267002   20.582751 H          1 MOL1         0.0972
       3    H2      19.365607   20.739039   20.922641 H          1 MOL1         0.0972
       4    H3      19.134434   20.180986   19.254379 H          1 MOL1         0.0972
       5    C2      20.584105   18.996055   20.377913 C.3        1 MOL1        -0.1383
       6    H4      21.388864   19.523609   19.846996 H          1 MOL1         0.0961
       7    H5      20.435542   18.049944   19.838967 H          1 MOL1         0.0961
       8    C3      21.066172   18.705984   21.822349 C.3        1 MOL1        -0.1407
       9    H6      22.018935   18.164615   21.741241 H          1 MOL1         0.0961
      10    H7      21.312028   19.646876   22.329810 H          1 MOL1         0.0961
      11    C4      20.103441   17.839037   22.680640 C.3        1 MOL1        -0.1407
      12    H8      20.703842   17.249592   23.386292 H          1 MOL1         0.0961
      13    H9      19.607954   17.098852   22.037570 H          1 MOL1         0.0961
      14    C5      19.029648   18.621638   23.487142 C.3        1 MOL1        -0.1472
      15    H10     18.333439   19.114239   22.800748 H          1 MOL1         0.0961
      16    H11     18.425829   17.901356   24.054879 H          1 MOL1         0.0961
      17    C6      19.599473   19.677328   24.461748 C.3        1 MOL1         0.1190
      18    H12     20.170022   20.409910   23.883976 H          1 MOL1         0.0923
      19    C7      18.456845   20.419575   25.172898 C.3        1 MOL1        -0.2463
      20    H13     17.796746   20.907459   24.444899 H          1 MOL1         0.0972
      21    H14     18.853277   21.198015   25.836383 H          1 MOL1         0.0972
      22    H15     17.851141   19.732032   25.776453 H          1 MOL1         0.0972
      23    N1      20.549363   19.081683   25.464421 N.4        1 MOL1        -0.5974
      24    H16     20.083567   18.384656   26.051239 H          1 MOL1         0.3625
      25    H17     21.336113   18.619284   25.000903 H          1 MOL1         0.3625
      26    H18     20.936045   19.797470   26.086038 H          1 MOL1         0.3625
@<TRIPOS>BOND
    1     1     2    1
    2     1     3    1
    3     1     4    1
    4     1     5    1
    5     5     6    1
    6     5     7    1
    7     5     8    1
    8     8     9    1
    9     8    10    1
   10     8    11    1
   11    11    12    1
   12    11    13    1
   13    11    14    1
   14    14    15    1
   15    14    16    1
   16    14    17    1
   17    17    18    1
   18    17    19    1
   19    19    20    1
   20    19    21    1
   21    19    22    1
   22    17    23    1
   23    23    24    1
   24    23    25    1
   25    23    26    1
@<TRIPOS>SUBSTRUCTURE
       1 MOL1            1 RESIDUE      1      MOL     
@<SCITEGIC>MOL_PROPERTY
VM2 Rank
SciTegic.value.IntegerValue
45

@<SCITEGIC>MOL_PROPERTY
Conf_Id
SciTegic.value.IntegerValue
996

@<SCITEGIC>MOL_PROPERTY
Probability
SciTegic.value.DoubleValue
0.04

@<SCITEGIC>MOL_PROPERTY
Sum Probability
SciTegic.value.DoubleValue
99.37

@<SCITEGIC>MOL_PROPERTY
Delta G
SciTegic.value.DoubleValue
3.595

@<SCITEGIC>MOL_PROPERTY
G
SciTegic.value.DoubleValue
27.304

@<SCITEGIC>MOL_PROPERTY
E
SciTegic.value.DoubleValue
-5.212

@<SCITEGIC>MOL_PROPERTY
-TS
SciTegic.value.DoubleValue
32.516

@<SCITEGIC>MOL_PROPERTY
U+W
SciTegic.value.DoubleValue
-26.674

@<SCITEGIC>MOL_PROPERTY
U
SciTegic.value.DoubleValue
27.544

@<SCITEGIC>MOL_PROPERTY
W
SciTegic.value.DoubleValue
-54.218

@<SCITEGIC>MOL_PROPERTY
W(PB)
SciTegic.value.DoubleValue
-56.452

@<SCITEGIC>MOL_PROPERTY
W(SA)
SciTegic.value.DoubleValue
2.234

@<SCITEGIC>MOL_PROPERTY
Valence
SciTegic.value.DoubleValue
6.186

@<SCITEGIC>MOL_PROPERTY
Coulomb
SciTegic.value.DoubleValue
20.490

@<SCITEGIC>MOL_PROPERTY
VdW
SciTegic.value.DoubleValue
0.868

@<SCITEGIC>MOL_PROPERTY
VdW6
SciTegic.value.DoubleValue
-9.300

@<SCITEGIC>MOL_PROPERTY
VdW12
SciTegic.value.DoubleValue
10.168

@<SCITEGIC>MOL_PROPERTY
Bond
SciTegic.value.DoubleValue
0.324

@<SCITEGIC>MOL_PROPERTY
Angle
SciTegic.value.DoubleValue
2.319

@<SCITEGIC>MOL_PROPERTY
Pdih
SciTegic.value.DoubleValue
3.543

@<SCITEGIC>MOL_PROPERTY
Idih
SciTegic.value.DoubleValue
0.000

@<SCITEGIC>MOL_PROPERTY
Tether
SciTegic.value.DoubleValue
0.000

@<TRIPOS>MOLECULE
guest-s13_vm2.mol2 : vm2 ligand conformer 46
          26          25           1
SMALL
USER_CHARGES
 
@<TRIPOS>ATOM
       1    C1      19.300474   17.906588   20.458449 C.3        1 MOL1        -0.2398
       2    H1      18.761977   17.517990   19.584446 H          1 MOL1         0.0972
       3    H2      20.016382   17.139353   20.780438 H          1 MOL1         0.0972
       4    H3      18.563060   18.055696   21.256637 H          1 MOL1         0.0972
       5    C2      20.019065   19.227054   20.105563 C.3        1 MOL1        -0.1383
       6    H4      19.271292   19.993619   19.858707 H          1 MOL1         0.0961
       7    H5      20.609537   19.073218   19.191537 H          1 MOL1         0.0961
       8    C3      20.961886   19.758883   21.215165 C.3        1 MOL1        -0.1407
       9    H6      21.779235   19.045674   21.389104 H          1 MOL1         0.0961
      10    H7      21.441811   20.669740   20.831180 H          1 MOL1         0.0961
      11    C4      20.257850   20.111277   22.551821 C.3        1 MOL1        -0.1407
      12    H8      19.226973   20.429014   22.349586 H          1 MOL1         0.0961
      13    H9      20.764652   20.981308   22.991870 H          1 MOL1         0.0961
      14    C5      20.293887   18.958215   23.589595 C.3        1 MOL1        -0.1472
      15    H10     19.779194   18.071866   23.202384 H          1 MOL1         0.0961
      16    H11     21.340391   18.663008   23.741552 H          1 MOL1         0.0961
      17    C6      19.692641   19.340785   24.961199 C.3        1 MOL1         0.1190
      18    H12     20.180994   20.257079   25.307007 H          1 MOL1         0.0923
      19    C7      18.176936   19.596581   24.877382 C.3        1 MOL1        -0.2463
      20    H13     17.951586   20.458506   24.239144 H          1 MOL1         0.0972
      21    H14     17.766496   19.813862   25.871180 H          1 MOL1         0.0972
      22    H15     17.648690   18.723249   24.474992 H          1 MOL1         0.0972
      23    N1      19.985262   18.288618   25.994826 N.4        1 MOL1        -0.5974
      24    H16     20.991829   18.132189   26.099569 H          1 MOL1         0.3625
      25    H17     19.622260   18.556339   26.914069 H          1 MOL1         0.3625
      26    H18     19.558631   17.391764   25.747700 H          1 MOL1         0.3625
@<TRIPOS>BOND
    1     1     2    1
    2     1     3    1
    3     1     4    1
    4     1     5    1
    5     5     6    1
    6     5     7    1
    7     5     8    1
    8     8     9    1
    9     8    10    1
   10     8    11    1
   11    11    12    1
   12    11    13    1
   13    11    14    1
   14    14    15    1
   15    14    16    1
   16    14    17    1
   17    17    18    1
   18    17    19    1
   19    19    20    1
   20    19    21    1
   21    19    22    1
   22    17    23    1
   23    23    24    1
   24    23    25    1
   25    23    26    1
@<TRIPOS>SUBSTRUCTURE
       1 MOL1            1 RESIDUE      1      MOL     
@<SCITEGIC>MOL_PROPERTY
VM2 Rank
SciTegic.value.IntegerValue
46

@<SCITEGIC>MOL_PROPERTY
Conf_Id
SciTegic.value.IntegerValue
507

@<SCITEGIC>MOL_PROPERTY
Probability
SciTegic.value.DoubleValue
0.04

@<SCITEGIC>MOL_PROPERTY
Sum Probability
SciTegic.value.DoubleValue
99.41

@<SCITEGIC>MOL_PROPERTY
Delta G
SciTegic.value.DoubleValue
3.672

@<SCITEGIC>MOL_PROPERTY
G
SciTegic.value.DoubleValue
27.382

@<SCITEGIC>MOL_PROPERTY
E
SciTegic.value.DoubleValue
-5.486

@<SCITEGIC>MOL_PROPERTY
-TS
SciTegic.value.DoubleValue
32.868

@<SCITEGIC>MOL_PROPERTY
U+W
SciTegic.value.DoubleValue
-26.948

@<SCITEGIC>MOL_PROPERTY
U
SciTegic.value.DoubleValue
27.261

@<SCITEGIC>MOL_PROPERTY
W
SciTegic.value.DoubleValue
-54.209

@<SCITEGIC>MOL_PROPERTY
W(PB)
SciTegic.value.DoubleValue
-56.472

@<SCITEGIC>MOL_PROPERTY
W(SA)
SciTegic.value.DoubleValue
2.263

@<SCITEGIC>MOL_PROPERTY
Valence
SciTegic.value.DoubleValue
6.230

@<SCITEGIC>MOL_PROPERTY
Coulomb
SciTegic.value.DoubleValue
19.945

@<SCITEGIC>MOL_PROPERTY
VdW
SciTegic.value.DoubleValue
1.087

@<SCITEGIC>MOL_PROPERTY
VdW6
SciTegic.value.DoubleValue
-8.618

@<SCITEGIC>MOL_PROPERTY
VdW12
SciTegic.value.DoubleValue
9.705

@<SCITEGIC>MOL_PROPERTY
Bond
SciTegic.value.DoubleValue
0.277

@<SCITEGIC>MOL_PROPERTY
Angle
SciTegic.value.DoubleValue
1.928

@<SCITEGIC>MOL_PROPERTY
Pdih
SciTegic.value.DoubleValue
4.024

@<SCITEGIC>MOL_PROPERTY
Idih
SciTegic.value.DoubleValue
0.000

@<SCITEGIC>MOL_PROPERTY
Tether
SciTegic.value.DoubleValue
0.000

@<TRIPOS>MOLECULE
guest-s13_vm2.mol2 : vm2 ligand conformer 47
          26          25           1
SMALL
USER_CHARGES
 
@<TRIPOS>ATOM
       1    C1      20.280779   19.119091   19.303797 C.3        1 MOL1        -0.2398
       2    H1      20.937504   19.064255   18.425938 H          1 MOL1         0.0972
       3    H2      19.331083   18.634136   19.043189 H          1 MOL1         0.0972
       4    H3      20.083159   20.179968   19.501159 H          1 MOL1         0.0972
       5    C2      20.942760   18.428864   20.517990 C.3        1 MOL1        -0.1383
       6    H4      21.873281   18.952470   20.778186 H          1 MOL1         0.0961
       7    H5      21.234562   17.409479   20.228916 H          1 MOL1         0.0961
       8    C3      20.022293   18.348070   21.759849 C.3        1 MOL1        -0.1407
       9    H6      19.103704   17.805635   21.496622 H          1 MOL1         0.0961
      10    H7      20.526548   17.738966   22.518058 H          1 MOL1         0.0961
      11    C4      19.653560   19.737026   22.342935 C.3        1 MOL1        -0.1407
      12    H8      19.063116   20.281630   21.594413 H          1 MOL1         0.0961
      13    H9      20.559167   20.336255   22.510609 H          1 MOL1         0.0961
      14    C5      18.816765   19.664521   23.647507 C.3        1 MOL1        -0.1472
      15    H10     18.163253   20.546725   23.675257 H          1 MOL1         0.0961
      16    H11     18.146919   18.794705   23.623625 H          1 MOL1         0.0961
      17    C6      19.658198   19.663178   24.945469 C.3        1 MOL1         0.1190
      18    H12     20.297755   20.551156   24.935658 H          1 MOL1         0.0923
      19    C7      18.738840   19.749063   26.174552 C.3        1 MOL1        -0.2463
      20    H13     18.116904   20.652017   26.134750 H          1 MOL1         0.0972
      21    H14     19.328472   19.792645   27.098581 H          1 MOL1         0.0972
      22    H15     18.073692   18.878476   26.234240 H          1 MOL1         0.0972
      23    N1      20.574803   18.478187   25.061901 N.4        1 MOL1        -0.5974
      24    H16     20.048954   17.600468   25.076557 H          1 MOL1         0.3625
      25    H17     21.227434   18.438358   24.274554 H          1 MOL1         0.3625
      26    H18     21.130866   18.518364   25.920769 H          1 MOL1         0.3625
@<TRIPOS>BOND
    1     1     2    1
    2     1     3    1
    3     1     4    1
    4     1     5    1
    5     5     6    1
    6     5     7    1
    7     5     8    1
    8     8     9    1
    9     8    10    1
   10     8    11    1
   11    11    12    1
   12    11    13    1
   13    11    14    1
   14    14    15    1
   15    14    16    1
   16    14    17    1
   17    17    18    1
   18    17    19    1
   19    19    20    1
   20    19    21    1
   21    19    22    1
   22    17    23    1
   23    23    24    1
   24    23    25    1
   25    23    26    1
@<TRIPOS>SUBSTRUCTURE
       1 MOL1            1 RESIDUE      1      MOL     
@<SCITEGIC>MOL_PROPERTY
VM2 Rank
SciTegic.value.IntegerValue
47

@<SCITEGIC>MOL_PROPERTY
Conf_Id
SciTegic.value.IntegerValue
946

@<SCITEGIC>MOL_PROPERTY
Probability
SciTegic.value.DoubleValue
0.04

@<SCITEGIC>MOL_PROPERTY
Sum Probability
SciTegic.value.DoubleValue
99.44

@<SCITEGIC>MOL_PROPERTY
Delta G
SciTegic.value.DoubleValue
3.680

@<SCITEGIC>MOL_PROPERTY
G
SciTegic.value.DoubleValue
27.390

@<SCITEGIC>MOL_PROPERTY
E
SciTegic.value.DoubleValue
-5.262

@<SCITEGIC>MOL_PROPERTY
-TS
SciTegic.value.DoubleValue
32.652

@<SCITEGIC>MOL_PROPERTY
U+W
SciTegic.value.DoubleValue
-26.724

@<SCITEGIC>MOL_PROPERTY
U
SciTegic.value.DoubleValue
27.192

@<SCITEGIC>MOL_PROPERTY
W
SciTegic.value.DoubleValue
-53.916

@<SCITEGIC>MOL_PROPERTY
W(PB)
SciTegic.value.DoubleValue
-56.211

@<SCITEGIC>MOL_PROPERTY
W(SA)
SciTegic.value.DoubleValue
2.295

@<SCITEGIC>MOL_PROPERTY
Valence
SciTegic.value.DoubleValue
5.378

@<SCITEGIC>MOL_PROPERTY
Coulomb
SciTegic.value.DoubleValue
20.710

@<SCITEGIC>MOL_PROPERTY
VdW
SciTegic.value.DoubleValue
1.105

@<SCITEGIC>MOL_PROPERTY
VdW6
SciTegic.value.DoubleValue
-8.250

@<SCITEGIC>MOL_PROPERTY
VdW12
SciTegic.value.DoubleValue
9.354

@<SCITEGIC>MOL_PROPERTY
Bond
SciTegic.value.DoubleValue
0.276

@<SCITEGIC>MOL_PROPERTY
Angle
SciTegic.value.DoubleValue
1.582

@<SCITEGIC>MOL_PROPERTY
Pdih
SciTegic.value.DoubleValue
3.520

@<SCITEGIC>MOL_PROPERTY
Idih
SciTegic.value.DoubleValue
0.000

@<SCITEGIC>MOL_PROPERTY
Tether
SciTegic.value.DoubleValue
0.000

@<TRIPOS>MOLECULE
guest-s13_vm2.mol2 : vm2 ligand conformer 48
          26          25           1
SMALL
USER_CHARGES
 
@<TRIPOS>ATOM
       1    C1      19.287999   18.452291   19.855276 C.3        1 MOL1        -0.2398
       2    H1      18.747459   17.615112   20.315623 H          1 MOL1         0.0972
       3    H2      18.678969   19.357989   19.966718 H          1 MOL1         0.0972
       4    H3      19.376863   18.244381   18.781132 H          1 MOL1         0.0972
       5    C2      20.686373   18.627534   20.489783 C.3        1 MOL1        -0.1383
       6    H4      21.196589   19.484818   20.028792 H          1 MOL1         0.0961
       7    H5      21.296296   17.744232   20.254062 H          1 MOL1         0.0961
       8    C3      20.643245   18.807221   22.026228 C.3        1 MOL1        -0.1407
       9    H6      20.156694   17.929034   22.467701 H          1 MOL1         0.0961
      10    H7      21.674780   18.827249   22.403954 H          1 MOL1         0.0961
      11    C4      19.912126   20.099141   22.469393 C.3        1 MOL1        -0.1407
      12    H8      18.843550   20.027153   22.229646 H          1 MOL1         0.0961
      13    H9      20.294842   20.939537   21.874162 H          1 MOL1         0.0961
      14    C5      20.089302   20.460783   23.971130 C.3        1 MOL1        -0.1472
      15    H10     21.151076   20.650094   24.176185 H          1 MOL1         0.0961
      16    H11     19.584447   21.420179   24.144929 H          1 MOL1         0.0961
      17    C6      19.546954   19.451960   25.015806 C.3        1 MOL1         0.1190
      18    H12     19.561271   19.962369   25.983816 H          1 MOL1         0.0923
      19    C7      18.090776   19.041100   24.735919 C.3        1 MOL1        -0.2463
      20    H13     17.451968   19.925964   24.624300 H          1 MOL1         0.0972
      21    H14     17.693008   18.446121   25.567091 H          1 MOL1         0.0972
      22    H15     18.008019   18.439281   23.822972 H          1 MOL1         0.0972
      23    N1      20.431226   18.247969   25.190466 N.4        1 MOL1        -0.5974
      24    H16     20.487614   17.700209   24.329641 H          1 MOL1         0.3625
      25    H17     21.384728   18.517975   25.448134 H          1 MOL1         0.3625
      26    H18     20.079538   17.630318   25.927590 H          1 MOL1         0.3625
@<TRIPOS>BOND
    1     1     2    1
    2     1     3    1
    3     1     4    1
    4     1     5    1
    5     5     6    1
    6     5     7    1
    7     5     8    1
    8     8     9    1
    9     8    10    1
   10     8    11    1
   11    11    12    1
   12    11    13    1
   13    11    14    1
   14    14    15    1
   15    14    16    1
   16    14    17    1
   17    17    18    1
   18    17    19    1
   19    19    20    1
   20    19    21    1
   21    19    22    1
   22    17    23    1
   23    23    24    1
   24    23    25    1
   25    23    26    1
@<TRIPOS>SUBSTRUCTURE
       1 MOL1            1 RESIDUE      1      MOL     
@<SCITEGIC>MOL_PROPERTY
VM2 Rank
SciTegic.value.IntegerValue
48

@<SCITEGIC>MOL_PROPERTY
Conf_Id
SciTegic.value.IntegerValue
1006

@<SCITEGIC>MOL_PROPERTY
Probability
SciTegic.value.DoubleValue
0.03

@<SCITEGIC>MOL_PROPERTY
Sum Probability
SciTegic.value.DoubleValue
99.47

@<SCITEGIC>MOL_PROPERTY
Delta G
SciTegic.value.DoubleValue
3.766

@<SCITEGIC>MOL_PROPERTY
G
SciTegic.value.DoubleValue
27.476

@<SCITEGIC>MOL_PROPERTY
E
SciTegic.value.DoubleValue
-5.792

@<SCITEGIC>MOL_PROPERTY
-TS
SciTegic.value.DoubleValue
33.268

@<SCITEGIC>MOL_PROPERTY
U+W
SciTegic.value.DoubleValue
-27.254

@<SCITEGIC>MOL_PROPERTY
U
SciTegic.value.DoubleValue
27.148

@<SCITEGIC>MOL_PROPERTY
W
SciTegic.value.DoubleValue
-54.398

@<SCITEGIC>MOL_PROPERTY
W(PB)
SciTegic.value.DoubleValue
-56.624

@<SCITEGIC>MOL_PROPERTY
W(SA)
SciTegic.value.DoubleValue
2.226

@<SCITEGIC>MOL_PROPERTY
Valence
SciTegic.value.DoubleValue
5.071

@<SCITEGIC>MOL_PROPERTY
Coulomb
SciTegic.value.DoubleValue
21.224

@<SCITEGIC>MOL_PROPERTY
VdW
SciTegic.value.DoubleValue
0.853

@<SCITEGIC>MOL_PROPERTY
VdW6
SciTegic.value.DoubleValue
-9.599

@<SCITEGIC>MOL_PROPERTY
VdW12
SciTegic.value.DoubleValue
10.451

@<SCITEGIC>MOL_PROPERTY
Bond
SciTegic.value.DoubleValue
0.312

@<SCITEGIC>MOL_PROPERTY
Angle
SciTegic.value.DoubleValue
2.307

@<SCITEGIC>MOL_PROPERTY
Pdih
SciTegic.value.DoubleValue
2.453

@<SCITEGIC>MOL_PROPERTY
Idih
SciTegic.value.DoubleValue
0.000

@<SCITEGIC>MOL_PROPERTY
Tether
SciTegic.value.DoubleValue
0.000

@<TRIPOS>MOLECULE
guest-s13_vm2.mol2 : vm2 ligand conformer 49
          26          25           1
SMALL
USER_CHARGES
 
@<TRIPOS>ATOM
       1    C1      21.007608   19.711951   19.827732 C.3        1 MOL1        -0.2398
       2    H1      20.747085   19.036205   19.002661 H          1 MOL1         0.0972
       3    H2      20.402086   20.622288   19.728310 H          1 MOL1         0.0972
       4    H3      22.062002   19.994316   19.711170 H          1 MOL1         0.0972
       5    C2      20.772296   19.036252   21.195194 C.3        1 MOL1        -0.1383
       6    H4      21.088130   19.726019   21.985563 H          1 MOL1         0.0961
       7    H5      21.413988   18.147555   21.272713 H          1 MOL1         0.0961
       8    C3      19.290516   18.627634   21.378188 C.3        1 MOL1        -0.1407
       9    H6      18.640186   19.510360   21.307227 H          1 MOL1         0.0961
      10    H7      19.012185   17.979594   20.535454 H          1 MOL1         0.0961
      11    C4      19.000194   17.856054   22.692365 C.3        1 MOL1        -0.1407
      12    H8      19.836089   17.187679   22.937869 H          1 MOL1         0.0961
      13    H9      18.144201   17.192310   22.507417 H          1 MOL1         0.0961
      14    C5      18.630803   18.749839   23.907353 C.3        1 MOL1        -0.1472
      15    H10     17.746501   19.347413   23.648918 H          1 MOL1         0.0961
      16    H11     18.324441   18.101574   24.739124 H          1 MOL1         0.0961
      17    C6      19.748880   19.694729   24.397067 C.3        1 MOL1         0.1190
      18    H12     20.021349   20.361512   23.574893 H          1 MOL1         0.0923
      19    C7      19.243860   20.561821   25.561253 C.3        1 MOL1        -0.2463
      20    H13     18.957212   19.944439   26.421814 H          1 MOL1         0.0972
      21    H14     18.369845   21.151313   25.257405 H          1 MOL1         0.0972
      22    H15     20.021034   21.263630   25.888086 H          1 MOL1         0.0972
      23    N1      20.993843   18.949719   24.794848 N.4        1 MOL1        -0.5974
      24    H16     21.355118   18.390156   24.017889 H          1 MOL1         0.3625
      25    H17     21.737011   19.590192   25.088018 H          1 MOL1         0.3625
      26    H18     20.812532   18.313174   25.575448 H          1 MOL1         0.3625
@<TRIPOS>BOND
    1     1     2    1
    2     1     3    1
    3     1     4    1
    4     1     5    1
    5     5     6    1
    6     5     7    1
    7     5     8    1
    8     8     9    1
    9     8    10    1
   10     8    11    1
   11    11    12    1
   12    11    13    1
   13    11    14    1
   14    14    15    1
   15    14    16    1
   16    14    17    1
   17    17    18    1
   18    17    19    1
   19    19    20    1
   20    19    21    1
   21    19    22    1
   22    17    23    1
   23    23    24    1
   24    23    25    1
   25    23    26    1
@<TRIPOS>SUBSTRUCTURE
       1 MOL1            1 RESIDUE      1      MOL     
@<SCITEGIC>MOL_PROPERTY
VM2 Rank
SciTegic.value.IntegerValue
49

@<SCITEGIC>MOL_PROPERTY
Conf_Id
SciTegic.value.IntegerValue
102

@<SCITEGIC>MOL_PROPERTY
Probability
SciTegic.value.DoubleValue
0.03

@<SCITEGIC>MOL_PROPERTY
Sum Probability
SciTegic.value.DoubleValue
99.50

@<SCITEGIC>MOL_PROPERTY
Delta G
SciTegic.value.DoubleValue
3.783

@<SCITEGIC>MOL_PROPERTY
G
SciTegic.value.DoubleValue
27.493

@<SCITEGIC>MOL_PROPERTY
E
SciTegic.value.DoubleValue
-5.512

@<SCITEGIC>MOL_PROPERTY
-TS
SciTegic.value.DoubleValue
33.005

@<SCITEGIC>MOL_PROPERTY
U+W
SciTegic.value.DoubleValue
-26.974

@<SCITEGIC>MOL_PROPERTY
U
SciTegic.value.DoubleValue
27.042

@<SCITEGIC>MOL_PROPERTY
W
SciTegic.value.DoubleValue
-54.015

@<SCITEGIC>MOL_PROPERTY
W(PB)
SciTegic.value.DoubleValue
-56.287

@<SCITEGIC>MOL_PROPERTY
W(SA)
SciTegic.value.DoubleValue
2.272

@<SCITEGIC>MOL_PROPERTY
Valence
SciTegic.value.DoubleValue
5.411

@<SCITEGIC>MOL_PROPERTY
Coulomb
SciTegic.value.DoubleValue
21.047

@<SCITEGIC>MOL_PROPERTY
VdW
SciTegic.value.DoubleValue
0.584

@<SCITEGIC>MOL_PROPERTY
VdW6
SciTegic.value.DoubleValue
-8.849

@<SCITEGIC>MOL_PROPERTY
VdW12
SciTegic.value.DoubleValue
9.434

@<SCITEGIC>MOL_PROPERTY
Bond
SciTegic.value.DoubleValue
0.257

@<SCITEGIC>MOL_PROPERTY
Angle
SciTegic.value.DoubleValue
1.922

@<SCITEGIC>MOL_PROPERTY
Pdih
SciTegic.value.DoubleValue
3.231

@<SCITEGIC>MOL_PROPERTY
Idih
SciTegic.value.DoubleValue
0.000

@<SCITEGIC>MOL_PROPERTY
Tether
SciTegic.value.DoubleValue
0.000

@<TRIPOS>MOLECULE
guest-s13_vm2.mol2 : vm2 ligand conformer 50
          26          25           1
SMALL
USER_CHARGES
 
@<TRIPOS>ATOM
       1    C1      20.428149   17.684367   20.310197 C.3        1 MOL1        -0.2398
       2    H1      21.431988   17.850063   19.898046 H          1 MOL1         0.0972
       3    H2      20.541069   17.279304   21.321536 H          1 MOL1         0.0972
       4    H3      19.940279   16.914960   19.697908 H          1 MOL1         0.0972
       5    C2      19.601858   18.991590   20.293662 C.3        1 MOL1        -0.1383
       6    H4      18.581039   18.802719   20.653983 H          1 MOL1         0.0961
       7    H5      19.498329   19.311842   19.247412 H          1 MOL1         0.0961
       8    C3      20.252909   20.145630   21.099030 C.3        1 MOL1        -0.1407
       9    H6      21.347730   20.056746   21.073995 H          1 MOL1         0.0961
      10    H7      20.021814   21.090367   20.587641 H          1 MOL1         0.0961
      11    C4      19.759697   20.277082   22.563257 C.3        1 MOL1        -0.1407
      12    H8      18.677330   20.462134   22.558741 H          1 MOL1         0.0961
      13    H9      20.223475   21.170563   23.003740 H          1 MOL1         0.0961
      14    C5      20.081492   19.052680   23.455772 C.3        1 MOL1        -0.1472
      15    H10     19.480150   18.192381   23.136430 H          1 MOL1         0.0961
      16    H11     21.134616   18.778774   23.309987 H          1 MOL1         0.0961
      17    C6      19.843789   19.305638   24.961921 C.3        1 MOL1         0.1190
      18    H12     20.420981   20.187442   25.256771 H          1 MOL1         0.0923
      19    C7      18.360044   19.567287   25.277392 C.3        1 MOL1        -0.2463
      20    H13     17.730545   18.732008   24.946154 H          1 MOL1         0.0972
      21    H14     18.003909   20.481267   24.788088 H          1 MOL1         0.0972
      22    H15     18.211663   19.698031   26.356367 H          1 MOL1         0.0972
      23    N1      20.360063   18.163726   25.792770 N.4        1 MOL1        -0.5974
      24    H16     19.866785   17.292625   25.579986 H          1 MOL1         0.3625
      25    H17     21.357827   18.000051   25.630690 H          1 MOL1         0.3625
      26    H18     20.240659   18.345475   26.793352 H          1 MOL1         0.3625
@<TRIPOS>BOND
    1     1     2    1
    2     1     3    1
    3     1     4    1
    4     1     5    1
    5     5     6    1
    6     5     7    1
    7     5     8    1
    8     8     9    1
    9     8    10    1
   10     8    11    1
   11    11    12    1
   12    11    13    1
   13    11    14    1
   14    14    15    1
   15    14    16    1
   16    14    17    1
   17    17    18    1
   18    17    19    1
   19    19    20    1
   20    19    21    1
   21    19    22    1
   22    17    23    1
   23    23    24    1
   24    23    25    1
   25    23    26    1
@<TRIPOS>SUBSTRUCTURE
       1 MOL1            1 RESIDUE      1      MOL     
@<SCITEGIC>MOL_PROPERTY
VM2 Rank
SciTegic.value.IntegerValue
50

@<SCITEGIC>MOL_PROPERTY
Conf_Id
SciTegic.value.IntegerValue
445

@<SCITEGIC>MOL_PROPERTY
Probability
SciTegic.value.DoubleValue
0.03

@<SCITEGIC>MOL_PROPERTY
Sum Probability
SciTegic.value.DoubleValue
99.53

@<SCITEGIC>MOL_PROPERTY
Delta G
SciTegic.value.DoubleValue
3.785

@<SCITEGIC>MOL_PROPERTY
G
SciTegic.value.DoubleValue
27.495

@<SCITEGIC>MOL_PROPERTY
E
SciTegic.value.DoubleValue
-5.432

@<SCITEGIC>MOL_PROPERTY
-TS
SciTegic.value.DoubleValue
32.927

@<SCITEGIC>MOL_PROPERTY
U+W
SciTegic.value.DoubleValue
-26.894

@<SCITEGIC>MOL_PROPERTY
U
SciTegic.value.DoubleValue
27.268

@<SCITEGIC>MOL_PROPERTY
W
SciTegic.value.DoubleValue
-54.162

@<SCITEGIC>MOL_PROPERTY
W(PB)
SciTegic.value.DoubleValue
-56.431

@<SCITEGIC>MOL_PROPERTY
W(SA)
SciTegic.value.DoubleValue
2.270

@<SCITEGIC>MOL_PROPERTY
Valence
SciTegic.value.DoubleValue
6.201

@<SCITEGIC>MOL_PROPERTY
Coulomb
SciTegic.value.DoubleValue
19.968

@<SCITEGIC>MOL_PROPERTY
VdW
SciTegic.value.DoubleValue
1.099

@<SCITEGIC>MOL_PROPERTY
VdW6
SciTegic.value.DoubleValue
-8.560

@<SCITEGIC>MOL_PROPERTY
VdW12
SciTegic.value.DoubleValue
9.659

@<SCITEGIC>MOL_PROPERTY
Bond
SciTegic.value.DoubleValue
0.266

@<SCITEGIC>MOL_PROPERTY
Angle
SciTegic.value.DoubleValue
1.902

@<SCITEGIC>MOL_PROPERTY
Pdih
SciTegic.value.DoubleValue
4.034

@<SCITEGIC>MOL_PROPERTY
Idih
SciTegic.value.DoubleValue
0.000

@<SCITEGIC>MOL_PROPERTY
Tether
SciTegic.value.DoubleValue
0.000

@<TRIPOS>MOLECULE
guest-s13_vm2.mol2 : vm2 ligand conformer 51
          26          25           1
SMALL
USER_CHARGES
 
@<TRIPOS>ATOM
       1    C1      20.026681   18.600987   19.344886 C.3        1 MOL1        -0.2398
       2    H1      19.187125   19.306571   19.355540 H          1 MOL1         0.0972
       3    H2      20.499550   18.668504   18.356563 H          1 MOL1         0.0972
       4    H3      19.624528   17.585527   19.454989 H          1 MOL1         0.0972
       5    C2      21.053316   18.916150   20.456869 C.3        1 MOL1        -0.1383
       6    H4      21.415694   19.947808   20.346438 H          1 MOL1         0.0961
       7    H5      21.929275   18.266991   20.318395 H          1 MOL1         0.0961
       8    C3      20.502055   18.703109   21.887777 C.3        1 MOL1        -0.1407
       9    H6      20.114188   17.679350   21.981393 H          1 MOL1         0.0961
      10    H7      21.346466   18.791687   22.581537 H          1 MOL1         0.0961
      11    C4      19.405481   19.723860   22.283925 C.3        1 MOL1        -0.1407
      12    H8      18.619030   19.727029   21.518851 H          1 MOL1         0.0961
      13    H9      19.832631   20.736160   22.285359 H          1 MOL1         0.0961
      14    C5      18.722973   19.450211   23.650380 C.3        1 MOL1        -0.1472
      15    H10     17.907748   20.178905   23.753091 H          1 MOL1         0.0961
      16    H11     18.241466   18.463447   23.642228 H          1 MOL1         0.0961
      17    C6      19.653670   19.573358   24.880436 C.3        1 MOL1         0.1190
      18    H12     20.342105   20.406953   24.710795 H          1 MOL1         0.0923
      19    C7      18.833195   19.877087   26.145135 C.3        1 MOL1        -0.2463
      20    H13     18.278727   20.817428   26.035114 H          1 MOL1         0.0972
      21    H14     19.488959   19.980536   27.018480 H          1 MOL1         0.0972
      22    H15     18.111723   19.076606   26.351827 H          1 MOL1         0.0972
      23    N1      20.490630   18.343238   25.104593 N.4        1 MOL1        -0.5974
      24    H16     21.055991   18.118925   24.282914 H          1 MOL1         0.3625
      25    H17     21.129696   18.465007   25.895364 H          1 MOL1         0.3625
      26    H18     19.905959   17.528166   25.307455 H          1 MOL1         0.3625
@<TRIPOS>BOND
    1     1     2    1
    2     1     3    1
    3     1     4    1
    4     1     5    1
    5     5     6    1
    6     5     7    1
    7     5     8    1
    8     8     9    1
    9     8    10    1
   10     8    11    1
   11    11    12    1
   12    11    13    1
   13    11    14    1
   14    14    15    1
   15    14    16    1
   16    14    17    1
   17    17    18    1
   18    17    19    1
   19    19    20    1
   20    19    21    1
   21    19    22    1
   22    17    23    1
   23    23    24    1
   24    23    25    1
   25    23    26    1
@<TRIPOS>SUBSTRUCTURE
       1 MOL1            1 RESIDUE      1      MOL     
@<SCITEGIC>MOL_PROPERTY
VM2 Rank
SciTegic.value.IntegerValue
51

@<SCITEGIC>MOL_PROPERTY
Conf_Id
SciTegic.value.IntegerValue
675

@<SCITEGIC>MOL_PROPERTY
Probability
SciTegic.value.DoubleValue
0.03

@<SCITEGIC>MOL_PROPERTY
Sum Probability
SciTegic.value.DoubleValue
99.56

@<SCITEGIC>MOL_PROPERTY
Delta G
SciTegic.value.DoubleValue
3.791

@<SCITEGIC>MOL_PROPERTY
G
SciTegic.value.DoubleValue
27.501

@<SCITEGIC>MOL_PROPERTY
E
SciTegic.value.DoubleValue
-5.082

@<SCITEGIC>MOL_PROPERTY
-TS
SciTegic.value.DoubleValue
32.582

@<SCITEGIC>MOL_PROPERTY
U+W
SciTegic.value.DoubleValue
-26.543

@<SCITEGIC>MOL_PROPERTY
U
SciTegic.value.DoubleValue
27.399

@<SCITEGIC>MOL_PROPERTY
W
SciTegic.value.DoubleValue
-53.943

@<SCITEGIC>MOL_PROPERTY
W(PB)
SciTegic.value.DoubleValue
-56.246

@<SCITEGIC>MOL_PROPERTY
W(SA)
SciTegic.value.DoubleValue
2.303

@<SCITEGIC>MOL_PROPERTY
Valence
SciTegic.value.DoubleValue
5.205

@<SCITEGIC>MOL_PROPERTY
Coulomb
SciTegic.value.DoubleValue
21.096

@<SCITEGIC>MOL_PROPERTY
VdW
SciTegic.value.DoubleValue
1.098

@<SCITEGIC>MOL_PROPERTY
VdW6
SciTegic.value.DoubleValue
-8.389

@<SCITEGIC>MOL_PROPERTY
VdW12
SciTegic.value.DoubleValue
9.487

@<SCITEGIC>MOL_PROPERTY
Bond
SciTegic.value.DoubleValue
0.270

@<SCITEGIC>MOL_PROPERTY
Angle
SciTegic.value.DoubleValue
1.912

@<SCITEGIC>MOL_PROPERTY
Pdih
SciTegic.value.DoubleValue
3.023

@<SCITEGIC>MOL_PROPERTY
Idih
SciTegic.value.DoubleValue
0.000

@<SCITEGIC>MOL_PROPERTY
Tether
SciTegic.value.DoubleValue
0.000

@<TRIPOS>MOLECULE
guest-s13_vm2.mol2 : vm2 ligand conformer 52
          26          25           1
SMALL
USER_CHARGES
 
@<TRIPOS>ATOM
       1    C1      21.139883   19.245740   19.780588 C.3        1 MOL1        -0.2398
       2    H1      21.619210   20.153316   20.169894 H          1 MOL1         0.0972
       3    H2      21.662200   18.375190   20.196412 H          1 MOL1         0.0972
       4    H3      21.285657   19.229385   18.692743 H          1 MOL1         0.0972
       5    C2      19.633375   19.221306   20.124837 C.3        1 MOL1        -0.1383
       6    H4      19.183123   18.292570   19.747359 H          1 MOL1         0.0961
       7    H5      19.134562   20.043071   19.592218 H          1 MOL1         0.0961
       8    C3      19.347689   19.364406   21.639132 C.3        1 MOL1        -0.1407
       9    H6      19.778563   20.309221   21.995836 H          1 MOL1         0.0961
      10    H7      18.260979   19.437761   21.783234 H          1 MOL1         0.0961
      11    C4      19.892643   18.183707   22.479944 C.3        1 MOL1        -0.1407
      12    H8      20.990213   18.177590   22.445291 H          1 MOL1         0.0961
      13    H9      19.564177   17.239148   22.024893 H          1 MOL1         0.0961
      14    C5      19.436642   18.198363   23.961265 C.3        1 MOL1        -0.1472
      15    H10     18.342582   18.124476   24.021550 H          1 MOL1         0.0961
      16    H11     19.820543   17.282444   24.429712 H          1 MOL1         0.0961
      17    C6      19.941852   19.425113   24.759374 C.3        1 MOL1         0.1190
      18    H12     20.802413   19.846031   24.230315 H          1 MOL1         0.0923
      19    C7      18.857389   20.511147   24.883284 C.3        1 MOL1        -0.2463
      20    H13     17.992219   20.142549   25.448469 H          1 MOL1         0.0972
      21    H14     18.501982   20.840735   23.901087 H          1 MOL1         0.0972
      22    H15     19.251543   21.392294   25.404336 H          1 MOL1         0.0972
      23    N1      20.438529   19.038218   26.125575 N.4        1 MOL1        -0.5974
      24    H16     21.195820   18.351003   26.070562 H          1 MOL1         0.3625
      25    H17     20.800393   19.849096   26.635525 H          1 MOL1         0.3625
      26    H18     19.691735   18.629002   26.693470 H          1 MOL1         0.3625
@<TRIPOS>BOND
    1     1     2    1
    2     1     3    1
    3     1     4    1
    4     1     5    1
    5     5     6    1
    6     5     7    1
    7     5     8    1
    8     8     9    1
    9     8    10    1
   10     8    11    1
   11    11    12    1
   12    11    13    1
   13    11    14    1
   14    14    15    1
   15    14    16    1
   16    14    17    1
   17    17    18    1
   18    17    19    1
   19    19    20    1
   20    19    21    1
   21    19    22    1
   22    17    23    1
   23    23    24    1
   24    23    25    1
   25    23    26    1
@<TRIPOS>SUBSTRUCTURE
       1 MOL1            1 RESIDUE      1      MOL     
@<SCITEGIC>MOL_PROPERTY
VM2 Rank
SciTegic.value.IntegerValue
52

@<SCITEGIC>MOL_PROPERTY
Conf_Id
SciTegic.value.IntegerValue
190

@<SCITEGIC>MOL_PROPERTY
Probability
SciTegic.value.DoubleValue
0.03

@<SCITEGIC>MOL_PROPERTY
Sum Probability
SciTegic.value.DoubleValue
99.59

@<SCITEGIC>MOL_PROPERTY
Delta G
SciTegic.value.DoubleValue
3.791

@<SCITEGIC>MOL_PROPERTY
G
SciTegic.value.DoubleValue
27.501

@<SCITEGIC>MOL_PROPERTY
E
SciTegic.value.DoubleValue
-5.330

@<SCITEGIC>MOL_PROPERTY
-TS
SciTegic.value.DoubleValue
32.831

@<SCITEGIC>MOL_PROPERTY
U+W
SciTegic.value.DoubleValue
-26.792

@<SCITEGIC>MOL_PROPERTY
U
SciTegic.value.DoubleValue
27.317

@<SCITEGIC>MOL_PROPERTY
W
SciTegic.value.DoubleValue
-54.109

@<SCITEGIC>MOL_PROPERTY
W(PB)
SciTegic.value.DoubleValue
-56.369

@<SCITEGIC>MOL_PROPERTY
W(SA)
SciTegic.value.DoubleValue
2.261

@<SCITEGIC>MOL_PROPERTY
Valence
SciTegic.value.DoubleValue
6.336

@<SCITEGIC>MOL_PROPERTY
Coulomb
SciTegic.value.DoubleValue
19.872

@<SCITEGIC>MOL_PROPERTY
VdW
SciTegic.value.DoubleValue
1.110

@<SCITEGIC>MOL_PROPERTY
VdW6
SciTegic.value.DoubleValue
-8.501

@<SCITEGIC>MOL_PROPERTY
VdW12
SciTegic.value.DoubleValue
9.611

@<SCITEGIC>MOL_PROPERTY
Bond
SciTegic.value.DoubleValue
0.243

@<SCITEGIC>MOL_PROPERTY
Angle
SciTegic.value.DoubleValue
1.598

@<SCITEGIC>MOL_PROPERTY
Pdih
SciTegic.value.DoubleValue
4.495

@<SCITEGIC>MOL_PROPERTY
Idih
SciTegic.value.DoubleValue
0.000

@<SCITEGIC>MOL_PROPERTY
Tether
SciTegic.value.DoubleValue
0.000

@<TRIPOS>MOLECULE
guest-s13_vm2.mol2 : vm2 ligand conformer 53
          26          25           1
SMALL
USER_CHARGES
 
@<TRIPOS>ATOM
       1    C1      19.884412   20.081050   19.770978 C.3        1 MOL1        -0.2398
       2    H1      20.000758   20.223225   18.688770 H          1 MOL1         0.0972
       3    H2      18.920639   20.516710   20.064783 H          1 MOL1         0.0972
       4    H3      20.683155   20.647719   20.264995 H          1 MOL1         0.0972
       5    C2      19.947428   18.578632   20.128375 C.3        1 MOL1        -0.1383
       6    H4      20.930758   18.172794   19.852514 H          1 MOL1         0.0961
       7    H5      19.210046   18.039226   19.517543 H          1 MOL1         0.0961
       8    C3      19.660344   18.290691   21.621579 C.3        1 MOL1        -0.1407
       9    H6      18.671999   18.688135   21.881476 H          1 MOL1         0.0961
      10    H7      19.595598   17.202364   21.757783 H          1 MOL1         0.0961
      11    C4      20.747082   18.850695   22.575857 C.3        1 MOL1        -0.1407
      12    H8      20.850463   19.937366   22.460000 H          1 MOL1         0.0961
      13    H9      21.714133   18.421014   22.280089 H          1 MOL1         0.0961
      14    C5      20.492069   18.506648   24.067619 C.3        1 MOL1        -0.1472
      15    H10     19.919251   17.573679   24.151962 H          1 MOL1         0.0961
      16    H11     21.464562   18.302771   24.534952 H          1 MOL1         0.0961
      17    C6      19.809353   19.628643   24.886802 C.3        1 MOL1         0.1190
      18    H12     20.436260   20.523564   24.825635 H          1 MOL1         0.0923
      19    C7      18.410102   19.987896   24.359060 C.3        1 MOL1        -0.2463
      20    H13     17.765075   19.102070   24.306369 H          1 MOL1         0.0972
      21    H14     18.469985   20.436858   23.360917 H          1 MOL1         0.0972
      22    H15     17.926452   20.723109   25.013885 H          1 MOL1         0.0972
      23    N1      19.737209   19.263743   26.343730 N.4        1 MOL1        -0.5974
      24    H16     20.664939   19.067234   26.730125 H          1 MOL1         0.3625
      25    H17     19.330734   20.021549   26.899519 H          1 MOL1         0.3625
      26    H18     19.159520   18.432215   26.493027 H          1 MOL1         0.3625
@<TRIPOS>BOND
    1     1     2    1
    2     1     3    1
    3     1     4    1
    4     1     5    1
    5     5     6    1
    6     5     7    1
    7     5     8    1
    8     8     9    1
    9     8    10    1
   10     8    11    1
   11    11    12    1
   12    11    13    1
   13    11    14    1
   14    14    15    1
   15    14    16    1
   16    14    17    1
   17    17    18    1
   18    17    19    1
   19    19    20    1
   20    19    21    1
   21    19    22    1
   22    17    23    1
   23    23    24    1
   24    23    25    1
   25    23    26    1
@<TRIPOS>SUBSTRUCTURE
       1 MOL1            1 RESIDUE      1      MOL     
@<SCITEGIC>MOL_PROPERTY
VM2 Rank
SciTegic.value.IntegerValue
53

@<SCITEGIC>MOL_PROPERTY
Conf_Id
SciTegic.value.IntegerValue
731

@<SCITEGIC>MOL_PROPERTY
Probability
SciTegic.value.DoubleValue
0.03

@<SCITEGIC>MOL_PROPERTY
Sum Probability
SciTegic.value.DoubleValue
99.62

@<SCITEGIC>MOL_PROPERTY
Delta G
SciTegic.value.DoubleValue
3.823

@<SCITEGIC>MOL_PROPERTY
G
SciTegic.value.DoubleValue
27.533

@<SCITEGIC>MOL_PROPERTY
E
SciTegic.value.DoubleValue
-5.392

@<SCITEGIC>MOL_PROPERTY
-TS
SciTegic.value.DoubleValue
32.925

@<SCITEGIC>MOL_PROPERTY
U+W
SciTegic.value.DoubleValue
-26.853

@<SCITEGIC>MOL_PROPERTY
U
SciTegic.value.DoubleValue
27.193

@<SCITEGIC>MOL_PROPERTY
W
SciTegic.value.DoubleValue
-54.046

@<SCITEGIC>MOL_PROPERTY
W(PB)
SciTegic.value.DoubleValue
-56.289

@<SCITEGIC>MOL_PROPERTY
W(SA)
SciTegic.value.DoubleValue
2.242

@<SCITEGIC>MOL_PROPERTY
Valence
SciTegic.value.DoubleValue
6.324

@<SCITEGIC>MOL_PROPERTY
Coulomb
SciTegic.value.DoubleValue
19.778

@<SCITEGIC>MOL_PROPERTY
VdW
SciTegic.value.DoubleValue
1.091

@<SCITEGIC>MOL_PROPERTY
VdW6
SciTegic.value.DoubleValue
-8.628

@<SCITEGIC>MOL_PROPERTY
VdW12
SciTegic.value.DoubleValue
9.718

@<SCITEGIC>MOL_PROPERTY
Bond
SciTegic.value.DoubleValue
0.275

@<SCITEGIC>MOL_PROPERTY
Angle
SciTegic.value.DoubleValue
1.904

@<SCITEGIC>MOL_PROPERTY
Pdih
SciTegic.value.DoubleValue
4.144

@<SCITEGIC>MOL_PROPERTY
Idih
SciTegic.value.DoubleValue
0.000

@<SCITEGIC>MOL_PROPERTY
Tether
SciTegic.value.DoubleValue
0.000

@<TRIPOS>MOLECULE
guest-s13_vm2.mol2 : vm2 ligand conformer 54
          26          25           1
SMALL
USER_CHARGES
 
@<TRIPOS>ATOM
       1    C1      20.042222   17.661381   20.204735 C.3        1 MOL1        -0.2398
       2    H1      20.234915   17.270227   19.197369 H          1 MOL1         0.0972
       3    H2      20.834331   17.282113   20.861889 H          1 MOL1         0.0972
       4    H3      19.083947   17.249495   20.546853 H          1 MOL1         0.0972
       5    C2      20.008657   19.206556   20.186966 C.3        1 MOL1        -0.1383
       6    H4      19.288506   19.535376   19.424697 H          1 MOL1         0.0961
       7    H5      20.987468   19.594944   19.872615 H          1 MOL1         0.0961
       8    C3      19.609198   19.827541   21.547112 C.3        1 MOL1        -0.1407
       9    H6      19.487717   20.910873   21.410219 H          1 MOL1         0.0961
      10    H7      18.624367   19.445394   21.840048 H          1 MOL1         0.0961
      11    C4      20.652128   19.576613   22.667106 C.3        1 MOL1        -0.1407
      12    H8      21.621083   19.960617   22.319496 H          1 MOL1         0.0961
      13    H9      20.795074   18.501724   22.829637 H          1 MOL1         0.0961
      14    C5      20.302482   20.281166   24.008010 C.3        1 MOL1        -0.1472
      15    H10     21.238483   20.611187   24.477571 H          1 MOL1         0.0961
      16    H11     19.738785   21.202520   23.811182 H          1 MOL1         0.0961
      17    C6      19.539019   19.424716   25.048888 C.3        1 MOL1         0.1190
      18    H12     19.357488   20.063949   25.918494 H          1 MOL1         0.0923
      19    C7      18.172061   18.939871   24.539717 C.3        1 MOL1        -0.2463
      20    H13     17.580440   19.777704   24.150619 H          1 MOL1         0.0972
      21    H14     17.600965   18.480248   25.355605 H          1 MOL1         0.0972
      22    H15     18.281551   18.190703   23.746676 H          1 MOL1         0.0972
      23    N1      20.362233   18.270156   25.551466 N.4        1 MOL1        -0.5974
      24    H16     21.253124   18.586928   25.944433 H          1 MOL1         0.3625
      25    H17     19.871228   17.753008   26.286222 H          1 MOL1         0.3625
      26    H18     20.574513   17.609088   24.800503 H          1 MOL1         0.3625
@<TRIPOS>BOND
    1     1     2    1
    2     1     3    1
    3     1     4    1
    4     1     5    1
    5     5     6    1
    6     5     7    1
    7     5     8    1
    8     8     9    1
    9     8    10    1
   10     8    11    1
   11    11    12    1
   12    11    13    1
   13    11    14    1
   14    14    15    1
   15    14    16    1
   16    14    17    1
   17    17    18    1
   18    17    19    1
   19    19    20    1
   20    19    21    1
   21    19    22    1
   22    17    23    1
   23    23    24    1
   24    23    25    1
   25    23    26    1
@<TRIPOS>SUBSTRUCTURE
       1 MOL1            1 RESIDUE      1      MOL     
@<SCITEGIC>MOL_PROPERTY
VM2 Rank
SciTegic.value.IntegerValue
54

@<SCITEGIC>MOL_PROPERTY
Conf_Id
SciTegic.value.IntegerValue
203

@<SCITEGIC>MOL_PROPERTY
Probability
SciTegic.value.DoubleValue
0.03

@<SCITEGIC>MOL_PROPERTY
Sum Probability
SciTegic.value.DoubleValue
99.65

@<SCITEGIC>MOL_PROPERTY
Delta G
SciTegic.value.DoubleValue
3.834

@<SCITEGIC>MOL_PROPERTY
G
SciTegic.value.DoubleValue
27.544

@<SCITEGIC>MOL_PROPERTY
E
SciTegic.value.DoubleValue
-5.437

@<SCITEGIC>MOL_PROPERTY
-TS
SciTegic.value.DoubleValue
32.980

@<SCITEGIC>MOL_PROPERTY
U+W
SciTegic.value.DoubleValue
-26.898

@<SCITEGIC>MOL_PROPERTY
U
SciTegic.value.DoubleValue
27.552

@<SCITEGIC>MOL_PROPERTY
W
SciTegic.value.DoubleValue
-54.451

@<SCITEGIC>MOL_PROPERTY
W(PB)
SciTegic.value.DoubleValue
-56.691

@<SCITEGIC>MOL_PROPERTY
W(SA)
SciTegic.value.DoubleValue
2.240

@<SCITEGIC>MOL_PROPERTY
Valence
SciTegic.value.DoubleValue
6.310

@<SCITEGIC>MOL_PROPERTY
Coulomb
SciTegic.value.DoubleValue
20.199

@<SCITEGIC>MOL_PROPERTY
VdW
SciTegic.value.DoubleValue
1.044

@<SCITEGIC>MOL_PROPERTY
VdW6
SciTegic.value.DoubleValue
-9.081

@<SCITEGIC>MOL_PROPERTY
VdW12
SciTegic.value.DoubleValue
10.125

@<SCITEGIC>MOL_PROPERTY
Bond
SciTegic.value.DoubleValue
0.308

@<SCITEGIC>MOL_PROPERTY
Angle
SciTegic.value.DoubleValue
2.043

@<SCITEGIC>MOL_PROPERTY
Pdih
SciTegic.value.DoubleValue
3.958

@<SCITEGIC>MOL_PROPERTY
Idih
SciTegic.value.DoubleValue
0.000

@<SCITEGIC>MOL_PROPERTY
Tether
SciTegic.value.DoubleValue
0.000

@<TRIPOS>MOLECULE
guest-s13_vm2.mol2 : vm2 ligand conformer 55
          26          25           1
SMALL
USER_CHARGES
 
@<TRIPOS>ATOM
       1    C1      19.131280   19.716196   20.196544 C.3        1 MOL1        -0.2398
       2    H1      19.690330   20.659342   20.249065 H          1 MOL1         0.0972
       3    H2      18.556049   19.718471   19.261682 H          1 MOL1         0.0972
       4    H3      18.411320   19.688836   21.023725 H          1 MOL1         0.0972
       5    C2      20.083124   18.500955   20.241037 C.3        1 MOL1        -0.1383
       6    H4      20.670861   18.479408   19.312679 H          1 MOL1         0.0961
       7    H5      19.491070   17.575130   20.247424 H          1 MOL1         0.0961
       8    C3      21.062080   18.499476   21.442982 C.3        1 MOL1        -0.1407
       9    H6      21.709468   17.617558   21.340280 H          1 MOL1         0.0961
      10    H7      21.733422   19.367168   21.384001 H          1 MOL1         0.0961
      11    C4      20.378846   18.438680   22.834182 C.3        1 MOL1        -0.1407
      12    H8      21.004329   17.824129   23.494996 H          1 MOL1         0.0961
      13    H9      19.418566   17.914251   22.747751 H          1 MOL1         0.0961
      14    C5      20.194582   19.837191   23.486383 C.3        1 MOL1        -0.1472
      15    H10     21.178491   20.312153   23.593777 H          1 MOL1         0.0961
      16    H11     19.620815   20.493050   22.822235 H          1 MOL1         0.0961
      17    C6      19.508232   19.823100   24.872662 C.3        1 MOL1         0.1190
      18    H12     19.494689   20.854589   25.238272 H          1 MOL1         0.0923
      19    C7      18.048979   19.341901   24.789229 C.3        1 MOL1        -0.2463
      20    H13     17.985286   18.280677   24.521599 H          1 MOL1         0.0972
      21    H14     17.489998   19.919165   24.042339 H          1 MOL1         0.0972
      22    H15     17.546316   19.473788   25.755193 H          1 MOL1         0.0972
      23    N1      20.280876   19.030500   25.890981 N.4        1 MOL1        -0.5974
      24    H16     20.330600   18.042077   25.632480 H          1 MOL1         0.3625
      25    H17     21.240956   19.373883   25.984525 H          1 MOL1         0.3625
      26    H18     19.845383   19.084406   26.816076 H          1 MOL1         0.3625
@<TRIPOS>BOND
    1     1     2    1
    2     1     3    1
    3     1     4    1
    4     1     5    1
    5     5     6    1
    6     5     7    1
    7     5     8    1
    8     8     9    1
    9     8    10    1
   10     8    11    1
   11    11    12    1
   12    11    13    1
   13    11    14    1
   14    14    15    1
   15    14    16    1
   16    14    17    1
   17    17    18    1
   18    17    19    1
   19    19    20    1
   20    19    21    1
   21    19    22    1
   22    17    23    1
   23    23    24    1
   24    23    25    1
   25    23    26    1
@<TRIPOS>SUBSTRUCTURE
       1 MOL1            1 RESIDUE      1      MOL     
@<SCITEGIC>MOL_PROPERTY
VM2 Rank
SciTegic.value.IntegerValue
55

@<SCITEGIC>MOL_PROPERTY
Conf_Id
SciTegic.value.IntegerValue
1023

@<SCITEGIC>MOL_PROPERTY
Probability
SciTegic.value.DoubleValue
0.03

@<SCITEGIC>MOL_PROPERTY
Sum Probability
SciTegic.value.DoubleValue
99.67

@<SCITEGIC>MOL_PROPERTY
Delta G
SciTegic.value.DoubleValue
3.879

@<SCITEGIC>MOL_PROPERTY
G
SciTegic.value.DoubleValue
27.589

@<SCITEGIC>MOL_PROPERTY
E
SciTegic.value.DoubleValue
-5.461

@<SCITEGIC>MOL_PROPERTY
-TS
SciTegic.value.DoubleValue
33.050

@<SCITEGIC>MOL_PROPERTY
U+W
SciTegic.value.DoubleValue
-26.923

@<SCITEGIC>MOL_PROPERTY
U
SciTegic.value.DoubleValue
27.276

@<SCITEGIC>MOL_PROPERTY
W
SciTegic.value.DoubleValue
-54.198

@<SCITEGIC>MOL_PROPERTY
W(PB)
SciTegic.value.DoubleValue
-56.422

@<SCITEGIC>MOL_PROPERTY
W(SA)
SciTegic.value.DoubleValue
2.223

@<SCITEGIC>MOL_PROPERTY
Valence
SciTegic.value.DoubleValue
6.240

@<SCITEGIC>MOL_PROPERTY
Coulomb
SciTegic.value.DoubleValue
19.962

@<SCITEGIC>MOL_PROPERTY
VdW
SciTegic.value.DoubleValue
1.074

@<SCITEGIC>MOL_PROPERTY
VdW6
SciTegic.value.DoubleValue
-9.126

@<SCITEGIC>MOL_PROPERTY
VdW12
SciTegic.value.DoubleValue
10.201

@<SCITEGIC>MOL_PROPERTY
Bond
SciTegic.value.DoubleValue
0.305

@<SCITEGIC>MOL_PROPERTY
Angle
SciTegic.value.DoubleValue
1.933

@<SCITEGIC>MOL_PROPERTY
Pdih
SciTegic.value.DoubleValue
4.002

@<SCITEGIC>MOL_PROPERTY
Idih
SciTegic.value.DoubleValue
0.000

@<SCITEGIC>MOL_PROPERTY
Tether
SciTegic.value.DoubleValue
0.000

@<TRIPOS>MOLECULE
guest-s13_vm2.mol2 : vm2 ligand conformer 56
          26          25           1
SMALL
USER_CHARGES
 
@<TRIPOS>ATOM
       1    C1      21.320516   18.349737   20.539939 C.3        1 MOL1        -0.2398
       2    H1      22.090917   18.287738   19.760506 H          1 MOL1         0.0972
       3    H2      21.795795   18.762850   21.438202 H          1 MOL1         0.0972
       4    H3      20.983029   17.328710   20.760010 H          1 MOL1         0.0972
       5    C2      20.146312   19.235087   20.068359 C.3        1 MOL1        -0.1383
       6    H4      19.803859   18.873537   19.088680 H          1 MOL1         0.0961
       7    H5      20.506232   20.260519   19.904987 H          1 MOL1         0.0961
       8    C3      18.934960   19.258187   21.035348 C.3        1 MOL1        -0.1407
       9    H6      18.152410   19.873113   20.569557 H          1 MOL1         0.0961
      10    H7      18.504610   18.251368   21.126731 H          1 MOL1         0.0961
      11    C4      19.239137   19.843947   22.438976 C.3        1 MOL1        -0.1407
      12    H8      18.358287   20.410819   22.768032 H          1 MOL1         0.0961
      13    H9      20.062689   20.568324   22.373669 H          1 MOL1         0.0961
      14    C5      19.556447   18.758283   23.500678 C.3        1 MOL1        -0.1472
      15    H10     18.668842   18.131817   23.660158 H          1 MOL1         0.0961
      16    H11     20.335376   18.089913   23.117411 H          1 MOL1         0.0961
      17    C6      20.033543   19.333804   24.853770 C.3        1 MOL1         0.1190
      18    H12     20.895495   19.981360   24.665648 H          1 MOL1         0.0923
      19    C7      18.941538   20.167064   25.548600 C.3        1 MOL1        -0.2463
      20    H13     18.029344   19.577083   25.701887 H          1 MOL1         0.0972
      21    H14     18.682503   21.054880   24.960237 H          1 MOL1         0.0972
      22    H15     19.288193   20.517951   26.528406 H          1 MOL1         0.0972
      23    N1      20.515547   18.241891   25.768330 N.4        1 MOL1        -0.5974
      24    H16     21.274697   17.701428   25.343906 H          1 MOL1         0.3625
      25    H17     20.869652   18.622244   26.650600 H          1 MOL1         0.3625
      26    H18     19.763270   17.587260   25.998643 H          1 MOL1         0.3625
@<TRIPOS>BOND
    1     1     2    1
    2     1     3    1
    3     1     4    1
    4     1     5    1
    5     5     6    1
    6     5     7    1
    7     5     8    1
    8     8     9    1
    9     8    10    1
   10     8    11    1
   11    11    12    1
   12    11    13    1
   13    11    14    1
   14    14    15    1
   15    14    16    1
   16    14    17    1
   17    17    18    1
   18    17    19    1
   19    19    20    1
   20    19    21    1
   21    19    22    1
   22    17    23    1
   23    23    24    1
   24    23    25    1
   25    23    26    1
@<TRIPOS>SUBSTRUCTURE
       1 MOL1            1 RESIDUE      1      MOL     
@<SCITEGIC>MOL_PROPERTY
VM2 Rank
SciTegic.value.IntegerValue
56

@<SCITEGIC>MOL_PROPERTY
Conf_Id
SciTegic.value.IntegerValue
157

@<SCITEGIC>MOL_PROPERTY
Probability
SciTegic.value.DoubleValue
0.03

@<SCITEGIC>MOL_PROPERTY
Sum Probability
SciTegic.value.DoubleValue
99.70

@<SCITEGIC>MOL_PROPERTY
Delta G
SciTegic.value.DoubleValue
3.882

@<SCITEGIC>MOL_PROPERTY
G
SciTegic.value.DoubleValue
27.592

@<SCITEGIC>MOL_PROPERTY
E
SciTegic.value.DoubleValue
-5.381

@<SCITEGIC>MOL_PROPERTY
-TS
SciTegic.value.DoubleValue
32.972

@<SCITEGIC>MOL_PROPERTY
U+W
SciTegic.value.DoubleValue
-26.843

@<SCITEGIC>MOL_PROPERTY
U
SciTegic.value.DoubleValue
27.458

@<SCITEGIC>MOL_PROPERTY
W
SciTegic.value.DoubleValue
-54.301

@<SCITEGIC>MOL_PROPERTY
W(PB)
SciTegic.value.DoubleValue
-56.574

@<SCITEGIC>MOL_PROPERTY
W(SA)
SciTegic.value.DoubleValue
2.272

@<SCITEGIC>MOL_PROPERTY
Valence
SciTegic.value.DoubleValue
6.292

@<SCITEGIC>MOL_PROPERTY
Coulomb
SciTegic.value.DoubleValue
20.019

@<SCITEGIC>MOL_PROPERTY
VdW
SciTegic.value.DoubleValue
1.147

@<SCITEGIC>MOL_PROPERTY
VdW6
SciTegic.value.DoubleValue
-8.552

@<SCITEGIC>MOL_PROPERTY
VdW12
SciTegic.value.DoubleValue
9.699

@<SCITEGIC>MOL_PROPERTY
Bond
SciTegic.value.DoubleValue
0.273

@<SCITEGIC>MOL_PROPERTY
Angle
SciTegic.value.DoubleValue
1.838

@<SCITEGIC>MOL_PROPERTY
Pdih
SciTegic.value.DoubleValue
4.181

@<SCITEGIC>MOL_PROPERTY
Idih
SciTegic.value.DoubleValue
0.000

@<SCITEGIC>MOL_PROPERTY
Tether
SciTegic.value.DoubleValue
0.000

@<TRIPOS>MOLECULE
guest-s13_vm2.mol2 : vm2 ligand conformer 57
          26          25           1
SMALL
USER_CHARGES
 
@<TRIPOS>ATOM
       1    C1      19.801346   20.416120   20.748127 C.3        1 MOL1        -0.2398
       2    H1      20.704522   20.986901   20.999910 H          1 MOL1         0.0972
       3    H2      19.379269   20.850054   19.832452 H          1 MOL1         0.0972
       4    H3      19.068253   20.566328   21.546998 H          1 MOL1         0.0972
       5    C2      20.131651   18.921077   20.530479 C.3        1 MOL1        -0.1383
       6    H4      20.784181   18.847977   19.649116 H          1 MOL1         0.0961
       7    H5      19.220071   18.362162   20.277280 H          1 MOL1         0.0961
       8    C3      20.857590   18.254722   21.727999 C.3        1 MOL1        -0.1407
       9    H6      21.517144   17.473718   21.324880 H          1 MOL1         0.0961
      10    H7      21.527661   18.974230   22.216806 H          1 MOL1         0.0961
      11    C4      19.924750   17.572845   22.765431 C.3        1 MOL1        -0.1407
      12    H8      20.545544   17.025886   23.487625 H          1 MOL1         0.0961
      13    H9      19.326073   16.805325   22.255931 H          1 MOL1         0.0961
      14    C5      18.968019   18.518010   23.536539 C.3        1 MOL1        -0.1472
      15    H10     18.220430   18.917304   22.840415 H          1 MOL1         0.0961
      16    H11     18.403365   17.928969   24.271317 H          1 MOL1         0.0961
      17    C6      19.680786   19.682564   24.259367 C.3        1 MOL1         0.1190
      18    H12     20.246692   20.253140   23.517109 H          1 MOL1         0.0923
      19    C7      18.651013   20.623235   24.904543 C.3        1 MOL1        -0.2463
      20    H13     18.056613   20.100254   25.664172 H          1 MOL1         0.0972
      21    H14     17.963529   21.025091   24.149883 H          1 MOL1         0.0972
      22    H15     19.149892   21.473142   25.386313 H          1 MOL1         0.0972
      23    N1      20.672845   19.199426   25.281515 N.4        1 MOL1        -0.5974
      24    H16     20.214340   18.658603   26.019394 H          1 MOL1         0.3625
      25    H17     21.382847   18.598514   24.854510 H          1 MOL1         0.3625
      26    H18     21.159508   19.980275   25.730637 H          1 MOL1         0.3625
@<TRIPOS>BOND
    1     1     2    1
    2     1     3    1
    3     1     4    1
    4     1     5    1
    5     5     6    1
    6     5     7    1
    7     5     8    1
    8     8     9    1
    9     8    10    1
   10     8    11    1
   11    11    12    1
   12    11    13    1
   13    11    14    1
   14    14    15    1
   15    14    16    1
   16    14    17    1
   17    17    18    1
   18    17    19    1
   19    19    20    1
   20    19    21    1
   21    19    22    1
   22    17    23    1
   23    23    24    1
   24    23    25    1
   25    23    26    1
@<TRIPOS>SUBSTRUCTURE
       1 MOL1            1 RESIDUE      1      MOL     
@<SCITEGIC>MOL_PROPERTY
VM2 Rank
SciTegic.value.IntegerValue
57

@<SCITEGIC>MOL_PROPERTY
Conf_Id
SciTegic.value.IntegerValue
746

@<SCITEGIC>MOL_PROPERTY
Probability
SciTegic.value.DoubleValue
0.02

@<SCITEGIC>MOL_PROPERTY
Sum Probability
SciTegic.value.DoubleValue
99.72

@<SCITEGIC>MOL_PROPERTY
Delta G
SciTegic.value.DoubleValue
3.940

@<SCITEGIC>MOL_PROPERTY
G
SciTegic.value.DoubleValue
27.650

@<SCITEGIC>MOL_PROPERTY
E
SciTegic.value.DoubleValue
-5.738

@<SCITEGIC>MOL_PROPERTY
-TS
SciTegic.value.DoubleValue
33.388

@<SCITEGIC>MOL_PROPERTY
U+W
SciTegic.value.DoubleValue
-27.200

@<SCITEGIC>MOL_PROPERTY
U
SciTegic.value.DoubleValue
26.996

@<SCITEGIC>MOL_PROPERTY
W
SciTegic.value.DoubleValue
-54.196

@<SCITEGIC>MOL_PROPERTY
W(PB)
SciTegic.value.DoubleValue
-56.396

@<SCITEGIC>MOL_PROPERTY
W(SA)
SciTegic.value.DoubleValue
2.199

@<SCITEGIC>MOL_PROPERTY
Valence
SciTegic.value.DoubleValue
6.014

@<SCITEGIC>MOL_PROPERTY
Coulomb
SciTegic.value.DoubleValue
20.609

@<SCITEGIC>MOL_PROPERTY
VdW
SciTegic.value.DoubleValue
0.374

@<SCITEGIC>MOL_PROPERTY
VdW6
SciTegic.value.DoubleValue
-10.069

@<SCITEGIC>MOL_PROPERTY
VdW12
SciTegic.value.DoubleValue
10.443

@<SCITEGIC>MOL_PROPERTY
Bond
SciTegic.value.DoubleValue
0.292

@<SCITEGIC>MOL_PROPERTY
Angle
SciTegic.value.DoubleValue
2.200

@<SCITEGIC>MOL_PROPERTY
Pdih
SciTegic.value.DoubleValue
3.522

@<SCITEGIC>MOL_PROPERTY
Idih
SciTegic.value.DoubleValue
0.000

@<SCITEGIC>MOL_PROPERTY
Tether
SciTegic.value.DoubleValue
0.000

@<TRIPOS>MOLECULE
guest-s13_vm2.mol2 : vm2 ligand conformer 58
          26          25           1
SMALL
USER_CHARGES
 
@<TRIPOS>ATOM
       1    C1      20.624353   19.952154   19.972371 C.3        1 MOL1        -0.2398
       2    H1      21.559810   19.496755   19.622271 H          1 MOL1         0.0972
       3    H2      20.253230   20.606048   19.172626 H          1 MOL1         0.0972
       4    H3      20.859623   20.584843   20.835051 H          1 MOL1         0.0972
       5    C2      19.576310   18.867091   20.313103 C.3        1 MOL1        -0.1383
       6    H4      19.370710   18.296666   19.396449 H          1 MOL1         0.0961
       7    H5      18.622937   19.332959   20.598782 H          1 MOL1         0.0961
       8    C3      20.045317   17.879908   21.412997 C.3        1 MOL1        -0.1407
       9    H6      19.642926   16.886003   21.172836 H          1 MOL1         0.0961
      10    H7      21.138187   17.770277   21.385061 H          1 MOL1         0.0961
      11    C4      19.580443   18.235341   22.848951 C.3        1 MOL1        -0.1407
      12    H8      19.899972   17.425277   23.517250 H          1 MOL1         0.0961
      13    H9      18.482661   18.241388   22.876150 H          1 MOL1         0.0961
      14    C5      20.126575   19.588550   23.376465 C.3        1 MOL1        -0.1472
      15    H10     21.210383   19.633420   23.207780 H          1 MOL1         0.0961
      16    H11     19.688279   20.408387   22.794193 H          1 MOL1         0.0961
      17    C6      19.850382   19.861368   24.874018 C.3        1 MOL1         0.1190
      18    H12     20.280598   20.839477   25.110744 H          1 MOL1         0.0923
      19    C7      18.343974   19.928572   25.180283 C.3        1 MOL1        -0.2463
      20    H13     17.860486   18.952871   25.051169 H          1 MOL1         0.0972
      21    H14     17.844195   20.650038   24.522050 H          1 MOL1         0.0972
      22    H15     18.176750   20.251293   26.215198 H          1 MOL1         0.0972
      23    N1      20.540645   18.875017   25.775813 N.4        1 MOL1        -0.5974
      24    H16     21.550454   18.855095   25.607543 H          1 MOL1         0.3625
      25    H17     20.399896   19.108428   26.762774 H          1 MOL1         0.3625
      26    H18     20.185459   17.926790   25.631525 H          1 MOL1         0.3625
@<TRIPOS>BOND
    1     1     2    1
    2     1     3    1
    3     1     4    1
    4     1     5    1
    5     5     6    1
    6     5     7    1
    7     5     8    1
    8     8     9    1
    9     8    10    1
   10     8    11    1
   11    11    12    1
   12    11    13    1
   13    11    14    1
   14    14    15    1
   15    14    16    1
   16    14    17    1
   17    17    18    1
   18    17    19    1
   19    19    20    1
   20    19    21    1
   21    19    22    1
   22    17    23    1
   23    23    24    1
   24    23    25    1
   25    23    26    1
@<TRIPOS>SUBSTRUCTURE
       1 MOL1            1 RESIDUE      1      MOL     
@<SCITEGIC>MOL_PROPERTY
VM2 Rank
SciTegic.value.IntegerValue
58

@<SCITEGIC>MOL_PROPERTY
Conf_Id
SciTegic.value.IntegerValue
517

@<SCITEGIC>MOL_PROPERTY
Probability
SciTegic.value.DoubleValue
0.02

@<SCITEGIC>MOL_PROPERTY
Sum Probability
SciTegic.value.DoubleValue
99.74

@<SCITEGIC>MOL_PROPERTY
Delta G
SciTegic.value.DoubleValue
3.955

@<SCITEGIC>MOL_PROPERTY
G
SciTegic.value.DoubleValue
27.665

@<SCITEGIC>MOL_PROPERTY
E
SciTegic.value.DoubleValue
-5.395

@<SCITEGIC>MOL_PROPERTY
-TS
SciTegic.value.DoubleValue
33.060

@<SCITEGIC>MOL_PROPERTY
U+W
SciTegic.value.DoubleValue
-26.857

@<SCITEGIC>MOL_PROPERTY
U
SciTegic.value.DoubleValue
27.312

@<SCITEGIC>MOL_PROPERTY
W
SciTegic.value.DoubleValue
-54.169

@<SCITEGIC>MOL_PROPERTY
W(PB)
SciTegic.value.DoubleValue
-56.414

@<SCITEGIC>MOL_PROPERTY
W(SA)
SciTegic.value.DoubleValue
2.245

@<SCITEGIC>MOL_PROPERTY
Valence
SciTegic.value.DoubleValue
6.229

@<SCITEGIC>MOL_PROPERTY
Coulomb
SciTegic.value.DoubleValue
19.943

@<SCITEGIC>MOL_PROPERTY
VdW
SciTegic.value.DoubleValue
1.140

@<SCITEGIC>MOL_PROPERTY
VdW6
SciTegic.value.DoubleValue
-9.000

@<SCITEGIC>MOL_PROPERTY
VdW12
SciTegic.value.DoubleValue
10.140

@<SCITEGIC>MOL_PROPERTY
Bond
SciTegic.value.DoubleValue
0.294

@<SCITEGIC>MOL_PROPERTY
Angle
SciTegic.value.DoubleValue
1.968

@<SCITEGIC>MOL_PROPERTY
Pdih
SciTegic.value.DoubleValue
3.967

@<SCITEGIC>MOL_PROPERTY
Idih
SciTegic.value.DoubleValue
0.000

@<SCITEGIC>MOL_PROPERTY
Tether
SciTegic.value.DoubleValue
0.000

@<TRIPOS>MOLECULE
guest-s13_vm2.mol2 : vm2 ligand conformer 59
          26          25           1
SMALL
USER_CHARGES
 
@<TRIPOS>ATOM
       1    C1      19.051933   19.264551   19.604909 C.3        1 MOL1        -0.2398
       2    H1      18.419604   20.105237   19.918873 H          1 MOL1         0.0972
       3    H2      19.804115   19.646159   18.902193 H          1 MOL1         0.0972
       4    H3      18.418169   18.549651   19.064286 H          1 MOL1         0.0972
       5    C2      19.720373   18.589101   20.820883 C.3        1 MOL1        -0.1383
       6    H4      20.319495   17.733815   20.478536 H          1 MOL1         0.0961
       7    H5      18.940190   18.183864   21.477842 H          1 MOL1         0.0961
       8    C3      20.622569   19.577827   21.597011 C.3        1 MOL1        -0.1407
       9    H6      21.378761   19.977747   20.907392 H          1 MOL1         0.0961
      10    H7      20.038884   20.444278   21.932945 H          1 MOL1         0.0961
      11    C4      21.355471   18.930415   22.798316 C.3        1 MOL1        -0.1407
      12    H8      22.058951   19.663225   23.217273 H          1 MOL1         0.0961
      13    H9      21.974696   18.101529   22.428487 H          1 MOL1         0.0961
      14    C5      20.447884   18.403156   23.941938 C.3        1 MOL1        -0.1472
      15    H10     19.778225   17.613812   23.577861 H          1 MOL1         0.0961
      16    H11     21.106215   17.909319   24.668845 H          1 MOL1         0.0961
      17    C6      19.645238   19.509923   24.669643 C.3        1 MOL1         0.1190
      18    H12     20.142623   20.467898   24.489524 H          1 MOL1         0.0923
      19    C7      18.195077   19.602018   24.160478 C.3        1 MOL1        -0.2463
      20    H13     17.654231   18.663424   24.334321 H          1 MOL1         0.0972
      21    H14     18.155698   19.821701   23.088772 H          1 MOL1         0.0972
      22    H15     17.655120   20.404248   24.678283 H          1 MOL1         0.0972
      23    N1      19.649455   19.311009   26.160822 N.4        1 MOL1        -0.5974
      24    H16     20.602117   19.295518   26.536261 H          1 MOL1         0.3625
      25    H17     19.146263   20.063216   26.639846 H          1 MOL1         0.3625
      26    H18     19.200732   18.428976   26.422154 H          1 MOL1         0.3625
@<TRIPOS>BOND
    1     1     2    1
    2     1     3    1
    3     1     4    1
    4     1     5    1
    5     5     6    1
    6     5     7    1
    7     5     8    1
    8     8     9    1
    9     8    10    1
   10     8    11    1
   11    11    12    1
   12    11    13    1
   13    11    14    1
   14    14    15    1
   15    14    16    1
   16    14    17    1
   17    17    18    1
   18    17    19    1
   19    19    20    1
   20    19    21    1
   21    19    22    1
   22    17    23    1
   23    23    24    1
   24    23    25    1
   25    23    26    1
@<TRIPOS>SUBSTRUCTURE
       1 MOL1            1 RESIDUE      1      MOL     
@<SCITEGIC>MOL_PROPERTY
VM2 Rank
SciTegic.value.IntegerValue
59

@<SCITEGIC>MOL_PROPERTY
Conf_Id
SciTegic.value.IntegerValue
548

@<SCITEGIC>MOL_PROPERTY
Probability
SciTegic.value.DoubleValue
0.02

@<SCITEGIC>MOL_PROPERTY
Sum Probability
SciTegic.value.DoubleValue
99.77

@<SCITEGIC>MOL_PROPERTY
Delta G
SciTegic.value.DoubleValue
3.973

@<SCITEGIC>MOL_PROPERTY
G
SciTegic.value.DoubleValue
27.683

@<SCITEGIC>MOL_PROPERTY
E
SciTegic.value.DoubleValue
-5.492

@<SCITEGIC>MOL_PROPERTY
-TS
SciTegic.value.DoubleValue
33.175

@<SCITEGIC>MOL_PROPERTY
U+W
SciTegic.value.DoubleValue
-26.954

@<SCITEGIC>MOL_PROPERTY
U
SciTegic.value.DoubleValue
27.330

@<SCITEGIC>MOL_PROPERTY
W
SciTegic.value.DoubleValue
-54.284

@<SCITEGIC>MOL_PROPERTY
W(PB)
SciTegic.value.DoubleValue
-56.506

@<SCITEGIC>MOL_PROPERTY
W(SA)
SciTegic.value.DoubleValue
2.221

@<SCITEGIC>MOL_PROPERTY
Valence
SciTegic.value.DoubleValue
6.518

@<SCITEGIC>MOL_PROPERTY
Coulomb
SciTegic.value.DoubleValue
20.042

@<SCITEGIC>MOL_PROPERTY
VdW
SciTegic.value.DoubleValue
0.770

@<SCITEGIC>MOL_PROPERTY
VdW6
SciTegic.value.DoubleValue
-9.039

@<SCITEGIC>MOL_PROPERTY
VdW12
SciTegic.value.DoubleValue
9.809

@<SCITEGIC>MOL_PROPERTY
Bond
SciTegic.value.DoubleValue
0.256

@<SCITEGIC>MOL_PROPERTY
Angle
SciTegic.value.DoubleValue
1.989

@<SCITEGIC>MOL_PROPERTY
Pdih
SciTegic.value.DoubleValue
4.274

@<SCITEGIC>MOL_PROPERTY
Idih
SciTegic.value.DoubleValue
0.000

@<SCITEGIC>MOL_PROPERTY
Tether
SciTegic.value.DoubleValue
0.000

@<TRIPOS>MOLECULE
guest-s13_vm2.mol2 : vm2 ligand conformer 60
          26          25           1
SMALL
USER_CHARGES
 
@<TRIPOS>ATOM
       1    C1      20.657516   18.894199   19.374488 C.3        1 MOL1        -0.2398
       2    H1      20.460394   17.824205   19.228648 H          1 MOL1         0.0972
       3    H2      20.717536   19.362563   18.383551 H          1 MOL1         0.0972
       4    H3      21.640409   19.001698   19.849800 H          1 MOL1         0.0972
       5    C2      19.543664   19.554665   20.218191 C.3        1 MOL1        -0.1383
       6    H4      18.604923   19.529352   19.647297 H          1 MOL1         0.0961
       7    H5      19.779498   20.616554   20.374710 H          1 MOL1         0.0961
       8    C3      19.313282   18.863556   21.583758 C.3        1 MOL1        -0.1407
       9    H6      18.437658   19.322011   22.058760 H          1 MOL1         0.0961
      10    H7      19.050920   17.809427   21.418869 H          1 MOL1         0.0961
      11    C4      20.537785   18.949413   22.531091 C.3        1 MOL1        -0.1407
      12    H8      20.898950   19.984797   22.600094 H          1 MOL1         0.0961
      13    H9      21.359807   18.369636   22.090785 H          1 MOL1         0.0961
      14    C5      20.256737   18.387402   23.950046 C.3        1 MOL1        -0.1472
      15    H10     19.464032   17.628572   23.909475 H          1 MOL1         0.0961
      16    H11     21.158864   17.858974   24.285722 H          1 MOL1         0.0961
      17    C6      19.920256   19.456976   25.017154 C.3        1 MOL1         0.1190
      18    H12     20.751623   20.167366   25.059778 H          1 MOL1         0.0923
      19    C7      18.636909   20.240694   24.693922 C.3        1 MOL1        -0.2463
      20    H13     18.759713   20.838695   23.783483 H          1 MOL1         0.0972
      21    H14     18.393730   20.936597   25.506229 H          1 MOL1         0.0972
      22    H15     17.782832   19.566026   24.556465 H          1 MOL1         0.0972
      23    N1      19.821851   18.841094   26.385351 N.4        1 MOL1        -0.5974
      24    H16     19.058557   18.161165   26.435675 H          1 MOL1         0.3625
      25    H17     20.685025   18.354222   26.643204 H          1 MOL1         0.3625
      26    H18     19.646810   19.550102   27.103034 H          1 MOL1         0.3625
@<TRIPOS>BOND
    1     1     2    1
    2     1     3    1
    3     1     4    1
    4     1     5    1
    5     5     6    1
    6     5     7    1
    7     5     8    1
    8     8     9    1
    9     8    10    1
   10     8    11    1
   11    11    12    1
   12    11    13    1
   13    11    14    1
   14    14    15    1
   15    14    16    1
   16    14    17    1
   17    17    18    1
   18    17    19    1
   19    19    20    1
   20    19    21    1
   21    19    22    1
   22    17    23    1
   23    23    24    1
   24    23    25    1
   25    23    26    1
@<TRIPOS>SUBSTRUCTURE
       1 MOL1            1 RESIDUE      1      MOL     
@<SCITEGIC>MOL_PROPERTY
VM2 Rank
SciTegic.value.IntegerValue
60

@<SCITEGIC>MOL_PROPERTY
Conf_Id
SciTegic.value.IntegerValue
991

@<SCITEGIC>MOL_PROPERTY
Probability
SciTegic.value.DoubleValue
0.02

@<SCITEGIC>MOL_PROPERTY
Sum Probability
SciTegic.value.DoubleValue
99.79

@<SCITEGIC>MOL_PROPERTY
Delta G
SciTegic.value.DoubleValue
4.005

@<SCITEGIC>MOL_PROPERTY
G
SciTegic.value.DoubleValue
27.715

@<SCITEGIC>MOL_PROPERTY
E
SciTegic.value.DoubleValue
-5.269

@<SCITEGIC>MOL_PROPERTY
-TS
SciTegic.value.DoubleValue
32.984

@<SCITEGIC>MOL_PROPERTY
U+W
SciTegic.value.DoubleValue
-26.731

@<SCITEGIC>MOL_PROPERTY
U
SciTegic.value.DoubleValue
27.221

@<SCITEGIC>MOL_PROPERTY
W
SciTegic.value.DoubleValue
-53.952

@<SCITEGIC>MOL_PROPERTY
W(PB)
SciTegic.value.DoubleValue
-56.213

@<SCITEGIC>MOL_PROPERTY
W(SA)
SciTegic.value.DoubleValue
2.261

@<SCITEGIC>MOL_PROPERTY
Valence
SciTegic.value.DoubleValue
6.368

@<SCITEGIC>MOL_PROPERTY
Coulomb
SciTegic.value.DoubleValue
19.698

@<SCITEGIC>MOL_PROPERTY
VdW
SciTegic.value.DoubleValue
1.155

@<SCITEGIC>MOL_PROPERTY
VdW6
SciTegic.value.DoubleValue
-8.532

@<SCITEGIC>MOL_PROPERTY
VdW12
SciTegic.value.DoubleValue
9.687

@<SCITEGIC>MOL_PROPERTY
Bond
SciTegic.value.DoubleValue
0.272

@<SCITEGIC>MOL_PROPERTY
Angle
SciTegic.value.DoubleValue
1.847

@<SCITEGIC>MOL_PROPERTY
Pdih
SciTegic.value.DoubleValue
4.249

@<SCITEGIC>MOL_PROPERTY
Idih
SciTegic.value.DoubleValue
0.000

@<SCITEGIC>MOL_PROPERTY
Tether
SciTegic.value.DoubleValue
0.000

@<TRIPOS>MOLECULE
guest-s13_vm2.mol2 : vm2 ligand conformer 61
          26          25           1
SMALL
USER_CHARGES
 
@<TRIPOS>ATOM
       1    C1      20.027308   18.589638   19.331491 C.3        1 MOL1        -0.2398
       2    H1      20.365888   17.602127   19.668047 H          1 MOL1         0.0972
       3    H2      18.935045   18.561880   19.225673 H          1 MOL1         0.0972
       4    H3      20.456228   18.762422   18.335943 H          1 MOL1         0.0972
       5    C2      20.463204   19.705462   20.308318 C.3        1 MOL1        -0.1383
       6    H4      20.215092   20.679158   19.863130 H          1 MOL1         0.0961
       7    H5      21.555963   19.690511   20.424192 H          1 MOL1         0.0961
       8    C3      19.787043   19.610154   21.697533 C.3        1 MOL1        -0.1407
       9    H6      20.048666   20.514558   22.261877 H          1 MOL1         0.0961
      10    H7      18.695256   19.620170   21.575135 H          1 MOL1         0.0961
      11    C4      20.213540   18.359922   22.506798 C.3        1 MOL1        -0.1407
      12    H8      21.302788   18.371747   22.650542 H          1 MOL1         0.0961
      13    H9      19.989096   17.454243   21.929026 H          1 MOL1         0.0961
      14    C5      19.515639   18.231222   23.884773 C.3        1 MOL1        -0.1472
      15    H10     18.430468   18.131235   23.748522 H          1 MOL1         0.0961
      16    H11     19.844771   17.284111   24.332415 H          1 MOL1         0.0961
      17    C6      19.834597   19.391940   24.858341 C.3        1 MOL1         0.1190
      18    H12     20.730194   19.905469   24.495321 H          1 MOL1         0.0923
      19    C7      18.678297   20.406118   24.928912 C.3        1 MOL1        -0.2463
      20    H13     18.432116   20.804830   23.938490 H          1 MOL1         0.0972
      21    H14     18.947115   21.254407   25.570323 H          1 MOL1         0.0972
      22    H15     17.772333   19.943812   25.340445 H          1 MOL1         0.0972
      23    N1      20.168372   18.893545   26.237835 N.4        1 MOL1        -0.5974
      24    H16     20.966872   18.252446   26.223720 H          1 MOL1         0.3625
      25    H17     20.409211   19.665258   26.866311 H          1 MOL1         0.3625
      26    H18     19.379343   18.393833   26.656620 H          1 MOL1         0.3625
@<TRIPOS>BOND
    1     1     2    1
    2     1     3    1
    3     1     4    1
    4     1     5    1
    5     5     6    1
    6     5     7    1
    7     5     8    1
    8     8     9    1
    9     8    10    1
   10     8    11    1
   11    11    12    1
   12    11    13    1
   13    11    14    1
   14    14    15    1
   15    14    16    1
   16    14    17    1
   17    17    18    1
   18    17    19    1
   19    19    20    1
   20    19    21    1
   21    19    22    1
   22    17    23    1
   23    23    24    1
   24    23    25    1
   25    23    26    1
@<TRIPOS>SUBSTRUCTURE
       1 MOL1            1 RESIDUE      1      MOL     
@<SCITEGIC>MOL_PROPERTY
VM2 Rank
SciTegic.value.IntegerValue
61

@<SCITEGIC>MOL_PROPERTY
Conf_Id
SciTegic.value.IntegerValue
101

@<SCITEGIC>MOL_PROPERTY
Probability
SciTegic.value.DoubleValue
0.02

@<SCITEGIC>MOL_PROPERTY
Sum Probability
SciTegic.value.DoubleValue
99.81

@<SCITEGIC>MOL_PROPERTY
Delta G
SciTegic.value.DoubleValue
4.009

@<SCITEGIC>MOL_PROPERTY
G
SciTegic.value.DoubleValue
27.719

@<SCITEGIC>MOL_PROPERTY
E
SciTegic.value.DoubleValue
-5.019

@<SCITEGIC>MOL_PROPERTY
-TS
SciTegic.value.DoubleValue
32.738

@<SCITEGIC>MOL_PROPERTY
U+W
SciTegic.value.DoubleValue
-26.481

@<SCITEGIC>MOL_PROPERTY
U
SciTegic.value.DoubleValue
27.496

@<SCITEGIC>MOL_PROPERTY
W
SciTegic.value.DoubleValue
-53.977

@<SCITEGIC>MOL_PROPERTY
W(PB)
SciTegic.value.DoubleValue
-56.267

@<SCITEGIC>MOL_PROPERTY
W(SA)
SciTegic.value.DoubleValue
2.290

@<SCITEGIC>MOL_PROPERTY
Valence
SciTegic.value.DoubleValue
6.471

@<SCITEGIC>MOL_PROPERTY
Coulomb
SciTegic.value.DoubleValue
19.839

@<SCITEGIC>MOL_PROPERTY
VdW
SciTegic.value.DoubleValue
1.185

@<SCITEGIC>MOL_PROPERTY
VdW6
SciTegic.value.DoubleValue
-8.405

@<SCITEGIC>MOL_PROPERTY
VdW12
SciTegic.value.DoubleValue
9.590

@<SCITEGIC>MOL_PROPERTY
Bond
SciTegic.value.DoubleValue
0.248

@<SCITEGIC>MOL_PROPERTY
Angle
SciTegic.value.DoubleValue
1.620

@<SCITEGIC>MOL_PROPERTY
Pdih
SciTegic.value.DoubleValue
4.603

@<SCITEGIC>MOL_PROPERTY
Idih
SciTegic.value.DoubleValue
0.000

@<SCITEGIC>MOL_PROPERTY
Tether
SciTegic.value.DoubleValue
0.000

@<TRIPOS>MOLECULE
guest-s13_vm2.mol2 : vm2 ligand conformer 62
          26          25           1
SMALL
USER_CHARGES
 
@<TRIPOS>ATOM
       1    C1      20.458061   17.685694   20.255316 C.3        1 MOL1        -0.2398
       2    H1      20.378058   17.220242   21.243893 H          1 MOL1         0.0972
       3    H2      19.573009   17.396025   19.674068 H          1 MOL1         0.0972
       4    H3      21.337832   17.259120   19.756377 H          1 MOL1         0.0972
       5    C2      20.579366   19.225020   20.343743 C.3        1 MOL1        -0.1383
       6    H4      20.666832   19.616895   19.320652 H          1 MOL1         0.0961
       7    H5      21.510366   19.506840   20.854990 H          1 MOL1         0.0961
       8    C3      19.361892   19.897842   21.028740 C.3        1 MOL1        -0.1407
       9    H6      19.161590   20.847221   20.512957 H          1 MOL1         0.0961
      10    H7      18.459490   19.287894   20.884264 H          1 MOL1         0.0961
      11    C4      19.552958   20.216960   22.534381 C.3        1 MOL1        -0.1407
      12    H8      18.657606   20.751190   22.875978 H          1 MOL1         0.0961
      13    H9      20.391967   20.916105   22.654875 H          1 MOL1         0.0961
      14    C5      19.791190   18.970907   23.424577 C.3        1 MOL1        -0.1472
      15    H10     18.984378   18.242234   23.270678 H          1 MOL1         0.0961
      16    H11     20.721725   18.487184   23.104476 H          1 MOL1         0.0961
      17    C6      19.921354   19.295009   24.930866 C.3        1 MOL1         0.1190
      18    H12     20.674044   20.080547   25.049480 H          1 MOL1         0.0923
      19    C7      18.596249   19.791531   25.537542 C.3        1 MOL1        -0.2463
      20    H13     18.285569   20.745467   25.096876 H          1 MOL1         0.0972
      21    H14     18.703427   19.954828   26.616979 H          1 MOL1         0.0972
      22    H15     17.791130   19.062467   25.382882 H          1 MOL1         0.0972
      23    N1      20.426930   18.105036   25.698835 N.4        1 MOL1        -0.5974
      24    H16     21.331554   17.782743   25.343386 H          1 MOL1         0.3625
      25    H17     20.551577   18.325831   26.690896 H          1 MOL1         0.3625
      26    H18     19.775339   17.317892   25.641114 H          1 MOL1         0.3625
@<TRIPOS>BOND
    1     1     2    1
    2     1     3    1
    3     1     4    1
    4     1     5    1
    5     5     6    1
    6     5     7    1
    7     5     8    1
    8     8     9    1
    9     8    10    1
   10     8    11    1
   11    11    12    1
   12    11    13    1
   13    11    14    1
   14    14    15    1
   15    14    16    1
   16    14    17    1
   17    17    18    1
   18    17    19    1
   19    19    20    1
   20    19    21    1
   21    19    22    1
   22    17    23    1
   23    23    24    1
   24    23    25    1
   25    23    26    1
@<TRIPOS>SUBSTRUCTURE
       1 MOL1            1 RESIDUE      1      MOL     
@<SCITEGIC>MOL_PROPERTY
VM2 Rank
SciTegic.value.IntegerValue
62

@<SCITEGIC>MOL_PROPERTY
Conf_Id
SciTegic.value.IntegerValue
849

@<SCITEGIC>MOL_PROPERTY
Probability
SciTegic.value.DoubleValue
0.02

@<SCITEGIC>MOL_PROPERTY
Sum Probability
SciTegic.value.DoubleValue
99.83

@<SCITEGIC>MOL_PROPERTY
Delta G
SciTegic.value.DoubleValue
4.022

@<SCITEGIC>MOL_PROPERTY
G
SciTegic.value.DoubleValue
27.732

@<SCITEGIC>MOL_PROPERTY
E
SciTegic.value.DoubleValue
-5.118

@<SCITEGIC>MOL_PROPERTY
-TS
SciTegic.value.DoubleValue
32.850

@<SCITEGIC>MOL_PROPERTY
U+W
SciTegic.value.DoubleValue
-26.580

@<SCITEGIC>MOL_PROPERTY
U
SciTegic.value.DoubleValue
27.653

@<SCITEGIC>MOL_PROPERTY
W
SciTegic.value.DoubleValue
-54.233

@<SCITEGIC>MOL_PROPERTY
W(PB)
SciTegic.value.DoubleValue
-56.524

@<SCITEGIC>MOL_PROPERTY
W(SA)
SciTegic.value.DoubleValue
2.290

@<SCITEGIC>MOL_PROPERTY
Valence
SciTegic.value.DoubleValue
6.436

@<SCITEGIC>MOL_PROPERTY
Coulomb
SciTegic.value.DoubleValue
19.986

@<SCITEGIC>MOL_PROPERTY
VdW
SciTegic.value.DoubleValue
1.232

@<SCITEGIC>MOL_PROPERTY
VdW6
SciTegic.value.DoubleValue
-8.460

@<SCITEGIC>MOL_PROPERTY
VdW12
SciTegic.value.DoubleValue
9.692

@<SCITEGIC>MOL_PROPERTY
Bond
SciTegic.value.DoubleValue
0.276

@<SCITEGIC>MOL_PROPERTY
Angle
SciTegic.value.DoubleValue
2.012

@<SCITEGIC>MOL_PROPERTY
Pdih
SciTegic.value.DoubleValue
4.149

@<SCITEGIC>MOL_PROPERTY
Idih
SciTegic.value.DoubleValue
0.000

@<SCITEGIC>MOL_PROPERTY
Tether
SciTegic.value.DoubleValue
0.000

@<TRIPOS>MOLECULE
guest-s13_vm2.mol2 : vm2 ligand conformer 63
          26          25           1
SMALL
USER_CHARGES
 
@<TRIPOS>ATOM
       1    C1      19.618461   18.042059   19.542052 C.3        1 MOL1        -0.2398
       2    H1      18.675173   18.562709   19.331413 H          1 MOL1         0.0972
       3    H2      20.123144   17.858744   18.584594 H          1 MOL1         0.0972
       4    H3      19.379196   17.068115   19.988578 H          1 MOL1         0.0972
       5    C2      20.515732   18.877491   20.479672 C.3        1 MOL1        -0.1383
       6    H4      20.766365   19.829167   19.990369 H          1 MOL1         0.0961
       7    H5      21.463860   18.346921   20.645483 H          1 MOL1         0.0961
       8    C3      19.827088   19.151821   21.834976 C.3        1 MOL1        -0.1407
       9    H6      18.884396   19.689685   21.663752 H          1 MOL1         0.0961
      10    H7      19.575123   18.191240   22.299832 H          1 MOL1         0.0961
      11    C4      20.731415   19.974725   22.781920 C.3        1 MOL1        -0.1407
      12    H8      21.102752   20.852161   22.234563 H          1 MOL1         0.0961
      13    H9      21.623871   19.389490   23.041087 H          1 MOL1         0.0961
      14    C5      20.035336   20.487239   24.074936 C.3        1 MOL1        -0.1472
      15    H10     20.768305   21.096996   24.619214 H          1 MOL1         0.0961
      16    H11     19.227063   21.180674   23.807611 H          1 MOL1         0.0961
      17    C6      19.498505   19.423434   25.067669 C.3        1 MOL1         0.1190
      18    H12     19.472102   19.900741   26.052192 H          1 MOL1         0.0923
      19    C7      18.052147   18.995721   24.756338 C.3        1 MOL1        -0.2463
      20    H13     17.969665   18.450388   23.811698 H          1 MOL1         0.0972
      21    H14     17.391662   19.869944   24.702772 H          1 MOL1         0.0972
      22    H15     17.668580   18.343657   25.550582 H          1 MOL1         0.0972
      23    N1      20.409317   18.235510   25.216437 N.4        1 MOL1        -0.5974
      24    H16     20.502166   17.729325   24.332465 H          1 MOL1         0.3625
      25    H17     21.348377   18.519744   25.509376 H          1 MOL1         0.3625
      26    H18     20.056024   17.577032   25.916453 H          1 MOL1         0.3625
@<TRIPOS>BOND
    1     1     2    1
    2     1     3    1
    3     1     4    1
    4     1     5    1
    5     5     6    1
    6     5     7    1
    7     5     8    1
    8     8     9    1
    9     8    10    1
   10     8    11    1
   11    11    12    1
   12    11    13    1
   13    11    14    1
   14    14    15    1
   15    14    16    1
   16    14    17    1
   17    17    18    1
   18    17    19    1
   19    19    20    1
   20    19    21    1
   21    19    22    1
   22    17    23    1
   23    23    24    1
   24    23    25    1
   25    23    26    1
@<TRIPOS>SUBSTRUCTURE
       1 MOL1            1 RESIDUE      1      MOL     
@<SCITEGIC>MOL_PROPERTY
VM2 Rank
SciTegic.value.IntegerValue
63

@<SCITEGIC>MOL_PROPERTY
Conf_Id
SciTegic.value.IntegerValue
1084

@<SCITEGIC>MOL_PROPERTY
Probability
SciTegic.value.DoubleValue
0.02

@<SCITEGIC>MOL_PROPERTY
Sum Probability
SciTegic.value.DoubleValue
99.85

@<SCITEGIC>MOL_PROPERTY
Delta G
SciTegic.value.DoubleValue
4.049

@<SCITEGIC>MOL_PROPERTY
G
SciTegic.value.DoubleValue
27.759

@<SCITEGIC>MOL_PROPERTY
E
SciTegic.value.DoubleValue
-5.289

@<SCITEGIC>MOL_PROPERTY
-TS
SciTegic.value.DoubleValue
33.048

@<SCITEGIC>MOL_PROPERTY
U+W
SciTegic.value.DoubleValue
-26.751

@<SCITEGIC>MOL_PROPERTY
U
SciTegic.value.DoubleValue
27.376

@<SCITEGIC>MOL_PROPERTY
W
SciTegic.value.DoubleValue
-54.127

@<SCITEGIC>MOL_PROPERTY
W(PB)
SciTegic.value.DoubleValue
-56.398

@<SCITEGIC>MOL_PROPERTY
W(SA)
SciTegic.value.DoubleValue
2.271

@<SCITEGIC>MOL_PROPERTY
Valence
SciTegic.value.DoubleValue
5.849

@<SCITEGIC>MOL_PROPERTY
Coulomb
SciTegic.value.DoubleValue
20.574

@<SCITEGIC>MOL_PROPERTY
VdW
SciTegic.value.DoubleValue
0.953

@<SCITEGIC>MOL_PROPERTY
VdW6
SciTegic.value.DoubleValue
-8.734

@<SCITEGIC>MOL_PROPERTY
VdW12
SciTegic.value.DoubleValue
9.687

@<SCITEGIC>MOL_PROPERTY
Bond
SciTegic.value.DoubleValue
0.283

@<SCITEGIC>MOL_PROPERTY
Angle
SciTegic.value.DoubleValue
2.366

@<SCITEGIC>MOL_PROPERTY
Pdih
SciTegic.value.DoubleValue
3.200

@<SCITEGIC>MOL_PROPERTY
Idih
SciTegic.value.DoubleValue
0.000

@<SCITEGIC>MOL_PROPERTY
Tether
SciTegic.value.DoubleValue
0.000

@<TRIPOS>MOLECULE
guest-s13_vm2.mol2 : vm2 ligand conformer 64
          26          25           1
SMALL
USER_CHARGES
 
@<TRIPOS>ATOM
       1    C1      20.758833   18.669765   19.561208 C.3        1 MOL1        -0.2398
       2    H1      21.696297   18.575343   20.123132 H          1 MOL1         0.0972
       3    H2      20.814062   17.979286   18.709676 H          1 MOL1         0.0972
       4    H3      20.697470   19.690558   19.162177 H          1 MOL1         0.0972
       5    C2      19.532563   18.343178   20.443455 C.3        1 MOL1        -0.1383
       6    H4      19.633259   17.329219   20.855094 H          1 MOL1         0.0961
       7    H5      18.634541   18.329678   19.810080 H          1 MOL1         0.0961
       8    C3      19.313350   19.355250   21.593835 C.3        1 MOL1        -0.1407
       9    H6      19.186774   20.362482   21.173573 H          1 MOL1         0.0961
      10    H7      18.365754   19.112136   22.088713 H          1 MOL1         0.0961
      11    C4      20.466159   19.367680   22.630593 C.3        1 MOL1        -0.1407
      12    H8      21.375915   19.728368   22.132858 H          1 MOL1         0.0961
      13    H9      20.688216   18.345377   22.962412 H          1 MOL1         0.0961
      14    C5      20.189508   20.292125   23.849252 C.3        1 MOL1        -0.1472
      15    H10     21.134149   20.769290   24.141663 H          1 MOL1         0.0961
      16    H11     19.530112   21.117557   23.550147 H          1 MOL1         0.0961
      17    C6      19.610011   19.600794   25.108574 C.3        1 MOL1         0.1190
      18    H12     19.464746   20.379086   25.864187 H          1 MOL1         0.0923
      19    C7      18.243755   18.943323   24.854917 C.3        1 MOL1        -0.2463
      20    H13     17.542679   19.659922   24.409596 H          1 MOL1         0.0972
      21    H14     17.806234   18.593110   25.797799 H          1 MOL1         0.0972
      22    H15     18.331560   18.078803   24.186145 H          1 MOL1         0.0972
      23    N1      20.573820   18.615885   25.712165 N.4        1 MOL1        -0.5974
      24    H16     21.470267   19.056859   25.936574 H          1 MOL1         0.3625
      25    H17     20.205066   18.215437   26.579365 H          1 MOL1         0.3625
      26    H18     20.763763   17.840583   25.072740 H          1 MOL1         0.3625
@<TRIPOS>BOND
    1     1     2    1
    2     1     3    1
    3     1     4    1
    4     1     5    1
    5     5     6    1
    6     5     7    1
    7     5     8    1
    8     8     9    1
    9     8    10    1
   10     8    11    1
   11    11    12    1
   12    11    13    1
   13    11    14    1
   14    14    15    1
   15    14    16    1
   16    14    17    1
   17    17    18    1
   18    17    19    1
   19    19    20    1
   20    19    21    1
   21    19    22    1
   22    17    23    1
   23    23    24    1
   24    23    25    1
   25    23    26    1
@<TRIPOS>SUBSTRUCTURE
       1 MOL1            1 RESIDUE      1      MOL     
@<SCITEGIC>MOL_PROPERTY
VM2 Rank
SciTegic.value.IntegerValue
64

@<SCITEGIC>MOL_PROPERTY
Conf_Id
SciTegic.value.IntegerValue
429

@<SCITEGIC>MOL_PROPERTY
Probability
SciTegic.value.DoubleValue
0.02

@<SCITEGIC>MOL_PROPERTY
Sum Probability
SciTegic.value.DoubleValue
99.86

@<SCITEGIC>MOL_PROPERTY
Delta G
SciTegic.value.DoubleValue
4.052

@<SCITEGIC>MOL_PROPERTY
G
SciTegic.value.DoubleValue
27.762

@<SCITEGIC>MOL_PROPERTY
E
SciTegic.value.DoubleValue
-5.292

@<SCITEGIC>MOL_PROPERTY
-TS
SciTegic.value.DoubleValue
33.054

@<SCITEGIC>MOL_PROPERTY
U+W
SciTegic.value.DoubleValue
-26.754

@<SCITEGIC>MOL_PROPERTY
U
SciTegic.value.DoubleValue
27.509

@<SCITEGIC>MOL_PROPERTY
W
SciTegic.value.DoubleValue
-54.263

@<SCITEGIC>MOL_PROPERTY
W(PB)
SciTegic.value.DoubleValue
-56.495

@<SCITEGIC>MOL_PROPERTY
W(SA)
SciTegic.value.DoubleValue
2.232

@<SCITEGIC>MOL_PROPERTY
Valence
SciTegic.value.DoubleValue
6.375

@<SCITEGIC>MOL_PROPERTY
Coulomb
SciTegic.value.DoubleValue
20.014

@<SCITEGIC>MOL_PROPERTY
VdW
SciTegic.value.DoubleValue
1.120

@<SCITEGIC>MOL_PROPERTY
VdW6
SciTegic.value.DoubleValue
-8.976

@<SCITEGIC>MOL_PROPERTY
VdW12
SciTegic.value.DoubleValue
10.096

@<SCITEGIC>MOL_PROPERTY
Bond
SciTegic.value.DoubleValue
0.304

@<SCITEGIC>MOL_PROPERTY
Angle
SciTegic.value.DoubleValue
1.985

@<SCITEGIC>MOL_PROPERTY
Pdih
SciTegic.value.DoubleValue
4.086

@<SCITEGIC>MOL_PROPERTY
Idih
SciTegic.value.DoubleValue
0.000

@<SCITEGIC>MOL_PROPERTY
Tether
SciTegic.value.DoubleValue
0.000

@<TRIPOS>MOLECULE
guest-s13_vm2.mol2 : vm2 ligand conformer 65
          26          25           1
SMALL
USER_CHARGES
 
@<TRIPOS>ATOM
       1    C1      20.643082   19.924273   19.961667 C.3        1 MOL1        -0.2398
       2    H1      19.800913   20.182865   19.306733 H          1 MOL1         0.0972
       3    H2      20.666758   20.649968   20.781980 H          1 MOL1         0.0972
       4    H3      21.566266   20.048466   19.380974 H          1 MOL1         0.0972
       5    C2      20.517389   18.470100   20.473024 C.3        1 MOL1        -0.1383
       6    H4      21.400998   18.195475   21.065769 H          1 MOL1         0.0961
       7    H5      20.521023   17.803095   19.599526 H          1 MOL1         0.0961
       8    C3      19.221531   18.213500   21.284860 C.3        1 MOL1        -0.1407
       9    H6      18.421436   18.886465   20.946990 H          1 MOL1         0.0961
      10    H7      18.869878   17.198312   21.054244 H          1 MOL1         0.0961
      11    C4      19.385828   18.310970   22.823733 C.3        1 MOL1        -0.1407
      12    H8      20.112314   17.556780   23.154183 H          1 MOL1         0.0961
      13    H9      18.426510   18.034473   23.279142 H          1 MOL1         0.0961
      14    C5      19.818337   19.713494   23.328228 C.3        1 MOL1        -0.1472
      15    H10     20.821250   19.939786   22.946790 H          1 MOL1         0.0961
      16    H11     19.148648   20.475784   22.908833 H          1 MOL1         0.0961
      17    C6      19.853164   19.870912   24.867035 C.3        1 MOL1         0.1190
      18    H12     20.245414   20.869949   25.081250 H          1 MOL1         0.0923
      19    C7      18.449934   19.782362   25.492677 C.3        1 MOL1        -0.2463
      20    H13     18.029190   18.773536   25.409370 H          1 MOL1         0.0972
      21    H14     17.760910   20.483998   25.006387 H          1 MOL1         0.0972
      22    H15     18.489129   20.040507   26.558037 H          1 MOL1         0.0972
      23    N1      20.798736   18.902388   25.522776 N.4        1 MOL1        -0.5974
      24    H16     21.746540   18.988789   25.145220 H          1 MOL1         0.3625
      25    H17     20.856073   19.060960   26.532695 H          1 MOL1         0.3625
      26    H18     20.496963   17.935403   25.380587 H          1 MOL1         0.3625
@<TRIPOS>BOND
    1     1     2    1
    2     1     3    1
    3     1     4    1
    4     1     5    1
    5     5     6    1
    6     5     7    1
    7     5     8    1
    8     8     9    1
    9     8    10    1
   10     8    11    1
   11    11    12    1
   12    11    13    1
   13    11    14    1
   14    14    15    1
   15    14    16    1
   16    14    17    1
   17    17    18    1
   18    17    19    1
   19    19    20    1
   20    19    21    1
   21    19    22    1
   22    17    23    1
   23    23    24    1
   24    23    25    1
   25    23    26    1
@<TRIPOS>SUBSTRUCTURE
       1 MOL1            1 RESIDUE      1      MOL     
@<SCITEGIC>MOL_PROPERTY
VM2 Rank
SciTegic.value.IntegerValue
65

@<SCITEGIC>MOL_PROPERTY
Conf_Id
SciTegic.value.IntegerValue
567

@<SCITEGIC>MOL_PROPERTY
Probability
SciTegic.value.DoubleValue
0.02

@<SCITEGIC>MOL_PROPERTY
Sum Probability
SciTegic.value.DoubleValue
99.88

@<SCITEGIC>MOL_PROPERTY
Delta G
SciTegic.value.DoubleValue
4.063

@<SCITEGIC>MOL_PROPERTY
G
SciTegic.value.DoubleValue
27.773

@<SCITEGIC>MOL_PROPERTY
E
SciTegic.value.DoubleValue
-5.249

@<SCITEGIC>MOL_PROPERTY
-TS
SciTegic.value.DoubleValue
33.022

@<SCITEGIC>MOL_PROPERTY
U+W
SciTegic.value.DoubleValue
-26.711

@<SCITEGIC>MOL_PROPERTY
U
SciTegic.value.DoubleValue
27.573

@<SCITEGIC>MOL_PROPERTY
W
SciTegic.value.DoubleValue
-54.284

@<SCITEGIC>MOL_PROPERTY
W(PB)
SciTegic.value.DoubleValue
-56.537

@<SCITEGIC>MOL_PROPERTY
W(SA)
SciTegic.value.DoubleValue
2.253

@<SCITEGIC>MOL_PROPERTY
Valence
SciTegic.value.DoubleValue
6.363

@<SCITEGIC>MOL_PROPERTY
Coulomb
SciTegic.value.DoubleValue
20.026

@<SCITEGIC>MOL_PROPERTY
VdW
SciTegic.value.DoubleValue
1.184

@<SCITEGIC>MOL_PROPERTY
VdW6
SciTegic.value.DoubleValue
-8.939

@<SCITEGIC>MOL_PROPERTY
VdW12
SciTegic.value.DoubleValue
10.123

@<SCITEGIC>MOL_PROPERTY
Bond
SciTegic.value.DoubleValue
0.298

@<SCITEGIC>MOL_PROPERTY
Angle
SciTegic.value.DoubleValue
2.017

@<SCITEGIC>MOL_PROPERTY
Pdih
SciTegic.value.DoubleValue
4.047

@<SCITEGIC>MOL_PROPERTY
Idih
SciTegic.value.DoubleValue
0.000

@<SCITEGIC>MOL_PROPERTY
Tether
SciTegic.value.DoubleValue
0.000

@<TRIPOS>MOLECULE
guest-s13_vm2.mol2 : vm2 ligand conformer 66
          26          25           1
SMALL
USER_CHARGES
 
@<TRIPOS>ATOM
       1    C1      19.550822   18.224624   19.406691 C.3        1 MOL1        -0.2398
       2    H1      18.580767   17.813936   19.715799 H          1 MOL1         0.0972
       3    H2      19.364660   19.080575   18.744941 H          1 MOL1         0.0972
       4    H3      20.072004   17.454846   18.822870 H          1 MOL1         0.0972
       5    C2      20.391943   18.642166   20.631620 C.3        1 MOL1        -0.1383
       6    H4      21.366919   19.017821   20.291051 H          1 MOL1         0.0961
       7    H5      20.592749   17.754824   21.245731 H          1 MOL1         0.0961
       8    C3      19.677460   19.729743   21.469194 C.3        1 MOL1        -0.1407
       9    H6      19.461223   20.587702   20.817720 H          1 MOL1         0.0961
      10    H7      18.705516   19.352353   21.809189 H          1 MOL1         0.0961
      11    C4      20.519762   20.229774   22.672031 C.3        1 MOL1        -0.1407
      12    H8      20.090986   21.165100   23.057602 H          1 MOL1         0.0961
      13    H9      21.520071   20.497622   22.304564 H          1 MOL1         0.0961
      14    C5      20.667544   19.210787   23.836043 C.3        1 MOL1        -0.1472
      15    H10     20.600454   18.180522   23.467104 H          1 MOL1         0.0961
      16    H11     21.681873   19.315358   24.243199 H          1 MOL1         0.0961
      17    C6      19.674220   19.415667   25.005038 C.3        1 MOL1         0.1190
      18    H12     19.796117   20.436318   25.380599 H          1 MOL1         0.0923
      19    C7      18.207774   19.233037   24.578750 C.3        1 MOL1        -0.2463
      20    H13     18.049657   18.255685   24.106090 H          1 MOL1         0.0972
      21    H14     17.902948   20.015005   23.873870 H          1 MOL1         0.0972
      22    H15     17.540627   19.303897   25.446593 H          1 MOL1         0.0972
      23    N1      19.998475   18.502202   26.154631 N.4        1 MOL1        -0.5974
      24    H16     19.903283   17.518346   25.889321 H          1 MOL1         0.3625
      25    H17     20.957044   18.639898   26.487479 H          1 MOL1         0.3625
      26    H18     19.374332   18.665661   26.949700 H          1 MOL1         0.3625
@<TRIPOS>BOND
    1     1     2    1
    2     1     3    1
    3     1     4    1
    4     1     5    1
    5     5     6    1
    6     5     7    1
    7     5     8    1
    8     8     9    1
    9     8    10    1
   10     8    11    1
   11    11    12    1
   12    11    13    1
   13    11    14    1
   14    14    15    1
   15    14    16    1
   16    14    17    1
   17    17    18    1
   18    17    19    1
   19    19    20    1
   20    19    21    1
   21    19    22    1
   22    17    23    1
   23    23    24    1
   24    23    25    1
   25    23    26    1
@<TRIPOS>SUBSTRUCTURE
       1 MOL1            1 RESIDUE      1      MOL     
@<SCITEGIC>MOL_PROPERTY
VM2 Rank
SciTegic.value.IntegerValue
66

@<SCITEGIC>MOL_PROPERTY
Conf_Id
SciTegic.value.IntegerValue
532

@<SCITEGIC>MOL_PROPERTY
Probability
SciTegic.value.DoubleValue
0.02

@<SCITEGIC>MOL_PROPERTY
Sum Probability
SciTegic.value.DoubleValue
99.90

@<SCITEGIC>MOL_PROPERTY
Delta G
SciTegic.value.DoubleValue
4.152

@<SCITEGIC>MOL_PROPERTY
G
SciTegic.value.DoubleValue
27.862

@<SCITEGIC>MOL_PROPERTY
E
SciTegic.value.DoubleValue
-5.039

@<SCITEGIC>MOL_PROPERTY
-TS
SciTegic.value.DoubleValue
32.902

@<SCITEGIC>MOL_PROPERTY
U+W
SciTegic.value.DoubleValue
-26.501

@<SCITEGIC>MOL_PROPERTY
U
SciTegic.value.DoubleValue
27.603

@<SCITEGIC>MOL_PROPERTY
W
SciTegic.value.DoubleValue
-54.104

@<SCITEGIC>MOL_PROPERTY
W(PB)
SciTegic.value.DoubleValue
-56.397

@<SCITEGIC>MOL_PROPERTY
W(SA)
SciTegic.value.DoubleValue
2.293

@<SCITEGIC>MOL_PROPERTY
Valence
SciTegic.value.DoubleValue
6.568

@<SCITEGIC>MOL_PROPERTY
Coulomb
SciTegic.value.DoubleValue
19.917

@<SCITEGIC>MOL_PROPERTY
VdW
SciTegic.value.DoubleValue
1.118

@<SCITEGIC>MOL_PROPERTY
VdW6
SciTegic.value.DoubleValue
-8.472

@<SCITEGIC>MOL_PROPERTY
VdW12
SciTegic.value.DoubleValue
9.590

@<SCITEGIC>MOL_PROPERTY
Bond
SciTegic.value.DoubleValue
0.286

@<SCITEGIC>MOL_PROPERTY
Angle
SciTegic.value.DoubleValue
1.908

@<SCITEGIC>MOL_PROPERTY
Pdih
SciTegic.value.DoubleValue
4.373

@<SCITEGIC>MOL_PROPERTY
Idih
SciTegic.value.DoubleValue
0.000

@<SCITEGIC>MOL_PROPERTY
Tether
SciTegic.value.DoubleValue
0.000

@<TRIPOS>MOLECULE
guest-s13_vm2.mol2 : vm2 ligand conformer 67
          26          25           1
SMALL
USER_CHARGES
 
@<TRIPOS>ATOM
       1    C1      20.440093   19.035558   19.480695 C.3        1 MOL1        -0.2398
       2    H1      21.526603   19.152870   19.584298 H          1 MOL1         0.0972
       3    H2      20.242185   18.610616   18.488130 H          1 MOL1         0.0972
       4    H3      19.982137   20.031756   19.508216 H          1 MOL1         0.0972
       5    C2      19.872406   18.114714   20.584938 C.3        1 MOL1        -0.1383
       6    H4      20.263834   17.099537   20.429863 H          1 MOL1         0.0961
       7    H5      18.780675   18.041499   20.482225 H          1 MOL1         0.0961
       8    C3      20.235556   18.570405   22.019154 C.3        1 MOL1        -0.1407
       9    H6      19.924675   17.774944   22.706251 H          1 MOL1         0.0961
      10    H7      21.326714   18.662513   22.108720 H          1 MOL1         0.0961
      11    C4      19.557176   19.900514   22.433632 C.3        1 MOL1        -0.1407
      12    H8      18.465782   19.783041   22.404215 H          1 MOL1         0.0961
      13    H9      19.792165   20.671390   21.689090 H          1 MOL1         0.0961
      14    C5      19.997710   20.450486   23.819943 C.3        1 MOL1        -0.1472
      15    H10     21.071643   20.677050   23.795217 H          1 MOL1         0.0961
      16    H11     19.500558   21.418484   23.966076 H          1 MOL1         0.0961
      17    C6      19.695546   19.580595   25.067100 C.3        1 MOL1         0.1190
      18    H12     19.854504   20.219374   25.941437 H          1 MOL1         0.0923
      19    C7      18.234260   19.100788   25.111173 C.3        1 MOL1        -0.2463
      20    H13     18.018161   18.615215   26.070647 H          1 MOL1         0.0972
      21    H14     18.020645   18.378627   24.314167 H          1 MOL1         0.0972
      22    H15     17.544254   19.946838   25.003381 H          1 MOL1         0.0972
      23    N1      20.655255   18.434940   25.237364 N.4        1 MOL1        -0.5974
      24    H16     20.469377   17.917726   26.101348 H          1 MOL1         0.3625
      25    H17     20.587790   17.773308   24.461680 H          1 MOL1         0.3625
      26    H18     21.624620   18.761943   25.280683 H          1 MOL1         0.3625
@<TRIPOS>BOND
    1     1     2    1
    2     1     3    1
    3     1     4    1
    4     1     5    1
    5     5     6    1
    6     5     7    1
    7     5     8    1
    8     8     9    1
    9     8    10    1
   10     8    11    1
   11    11    12    1
   12    11    13    1
   13    11    14    1
   14    14    15    1
   15    14    16    1
   16    14    17    1
   17    17    18    1
   18    17    19    1
   19    19    20    1
   20    19    21    1
   21    19    22    1
   22    17    23    1
   23    23    24    1
   24    23    25    1
   25    23    26    1
@<TRIPOS>SUBSTRUCTURE
       1 MOL1            1 RESIDUE      1      MOL     
@<SCITEGIC>MOL_PROPERTY
VM2 Rank
SciTegic.value.IntegerValue
67

@<SCITEGIC>MOL_PROPERTY
Conf_Id
SciTegic.value.IntegerValue
175

@<SCITEGIC>MOL_PROPERTY
Probability
SciTegic.value.DoubleValue
0.02

@<SCITEGIC>MOL_PROPERTY
Sum Probability
SciTegic.value.DoubleValue
99.92

@<SCITEGIC>MOL_PROPERTY
Delta G
SciTegic.value.DoubleValue
4.160

@<SCITEGIC>MOL_PROPERTY
G
SciTegic.value.DoubleValue
27.870

@<SCITEGIC>MOL_PROPERTY
E
SciTegic.value.DoubleValue
-5.300

@<SCITEGIC>MOL_PROPERTY
-TS
SciTegic.value.DoubleValue
33.170

@<SCITEGIC>MOL_PROPERTY
U+W
SciTegic.value.DoubleValue
-26.761

@<SCITEGIC>MOL_PROPERTY
U
SciTegic.value.DoubleValue
27.482

@<SCITEGIC>MOL_PROPERTY
W
SciTegic.value.DoubleValue
-54.244

@<SCITEGIC>MOL_PROPERTY
W(PB)
SciTegic.value.DoubleValue
-56.495

@<SCITEGIC>MOL_PROPERTY
W(SA)
SciTegic.value.DoubleValue
2.251

@<SCITEGIC>MOL_PROPERTY
Valence
SciTegic.value.DoubleValue
5.285

@<SCITEGIC>MOL_PROPERTY
Coulomb
SciTegic.value.DoubleValue
21.247

@<SCITEGIC>MOL_PROPERTY
VdW
SciTegic.value.DoubleValue
0.951

@<SCITEGIC>MOL_PROPERTY
VdW6
SciTegic.value.DoubleValue
-9.416

@<SCITEGIC>MOL_PROPERTY
VdW12
SciTegic.value.DoubleValue
10.366

@<SCITEGIC>MOL_PROPERTY
Bond
SciTegic.value.DoubleValue
0.323

@<SCITEGIC>MOL_PROPERTY
Angle
SciTegic.value.DoubleValue
2.522

@<SCITEGIC>MOL_PROPERTY
Pdih
SciTegic.value.DoubleValue
2.439

@<SCITEGIC>MOL_PROPERTY
Idih
SciTegic.value.DoubleValue
0.000

@<SCITEGIC>MOL_PROPERTY
Tether
SciTegic.value.DoubleValue
0.000

@<TRIPOS>MOLECULE
guest-s13_vm2.mol2 : vm2 ligand conformer 68
          26          25           1
SMALL
USER_CHARGES
 
@<TRIPOS>ATOM
       1    C1      21.456534   19.094272   20.566414 C.3        1 MOL1        -0.2398
       2    H1      21.808350   18.816955   21.567558 H          1 MOL1         0.0972
       3    H2      22.206330   18.741871   19.846359 H          1 MOL1         0.0972
       4    H3      21.415883   20.189138   20.499801 H          1 MOL1         0.0972
       5    C2      20.079152   18.466076   20.261550 C.3        1 MOL1        -0.1383
       6    H4      20.139630   17.376283   20.389626 H          1 MOL1         0.0961
       7    H5      19.841848   18.634751   19.201843 H          1 MOL1         0.0961
       8    C3      18.917027   19.026181   21.121003 C.3        1 MOL1        -0.1407
       9    H6      18.781399   20.097933   20.920774 H          1 MOL1         0.0961
      10    H7      17.991310   18.542253   20.779962 H          1 MOL1         0.0961
      11    C4      19.060584   18.775919   22.644922 C.3        1 MOL1        -0.1407
      12    H8      19.642087   17.860709   22.816029 H          1 MOL1         0.0961
      13    H9      18.059537   18.582419   23.052410 H          1 MOL1         0.0961
      14    C5      19.681173   19.979785   23.406535 C.3        1 MOL1        -0.1472
      15    H10     20.631255   20.269038   22.944087 H          1 MOL1         0.0961
      16    H11     19.021969   20.851033   23.297268 H          1 MOL1         0.0961
      17    C6      19.931647   19.735698   24.913416 C.3        1 MOL1         0.1190
      18    H12     20.373956   20.649829   25.321516 H          1 MOL1         0.0923
      19    C7      18.626269   19.467415   25.682591 C.3        1 MOL1        -0.2463
      20    H13     17.894585   20.263873   25.498648 H          1 MOL1         0.0972
      21    H14     18.817311   19.434426   26.762207 H          1 MOL1         0.0972
      22    H15     18.174298   18.511162   25.393441 H          1 MOL1         0.0972
      23    N1      20.935614   18.642652   25.157569 N.4        1 MOL1        -0.5974
      24    H16     21.824588   18.837596   24.688624 H          1 MOL1         0.3625
      25    H17     21.134095   18.533821   26.156163 H          1 MOL1         0.3625
      26    H18     20.595322   17.741904   24.812533 H          1 MOL1         0.3625
@<TRIPOS>BOND
    1     1     2    1
    2     1     3    1
    3     1     4    1
    4     1     5    1
    5     5     6    1
    6     5     7    1
    7     5     8    1
    8     8     9    1
    9     8    10    1
   10     8    11    1
   11    11    12    1
   12    11    13    1
   13    11    14    1
   14    14    15    1
   15    14    16    1
   16    14    17    1
   17    17    18    1
   18    17    19    1
   19    19    20    1
   20    19    21    1
   21    19    22    1
   22    17    23    1
   23    23    24    1
   24    23    25    1
   25    23    26    1
@<TRIPOS>SUBSTRUCTURE
       1 MOL1            1 RESIDUE      1      MOL     
@<SCITEGIC>MOL_PROPERTY
VM2 Rank
SciTegic.value.IntegerValue
68

@<SCITEGIC>MOL_PROPERTY
Conf_Id
SciTegic.value.IntegerValue
460

@<SCITEGIC>MOL_PROPERTY
Probability
SciTegic.value.DoubleValue
0.01

@<SCITEGIC>MOL_PROPERTY
Sum Probability
SciTegic.value.DoubleValue
99.93

@<SCITEGIC>MOL_PROPERTY
Delta G
SciTegic.value.DoubleValue
4.261

@<SCITEGIC>MOL_PROPERTY
G
SciTegic.value.DoubleValue
27.971

@<SCITEGIC>MOL_PROPERTY
E
SciTegic.value.DoubleValue
-5.116

@<SCITEGIC>MOL_PROPERTY
-TS
SciTegic.value.DoubleValue
33.087

@<SCITEGIC>MOL_PROPERTY
U+W
SciTegic.value.DoubleValue
-26.577

@<SCITEGIC>MOL_PROPERTY
U
SciTegic.value.DoubleValue
27.752

@<SCITEGIC>MOL_PROPERTY
W
SciTegic.value.DoubleValue
-54.329

@<SCITEGIC>MOL_PROPERTY
W(PB)
SciTegic.value.DoubleValue
-56.573

@<SCITEGIC>MOL_PROPERTY
W(SA)
SciTegic.value.DoubleValue
2.244

@<SCITEGIC>MOL_PROPERTY
Valence
SciTegic.value.DoubleValue
6.249

@<SCITEGIC>MOL_PROPERTY
Coulomb
SciTegic.value.DoubleValue
20.445

@<SCITEGIC>MOL_PROPERTY
VdW
SciTegic.value.DoubleValue
1.057

@<SCITEGIC>MOL_PROPERTY
VdW6
SciTegic.value.DoubleValue
-9.101

@<SCITEGIC>MOL_PROPERTY
VdW12
SciTegic.value.DoubleValue
10.158

@<SCITEGIC>MOL_PROPERTY
Bond
SciTegic.value.DoubleValue
0.302

@<SCITEGIC>MOL_PROPERTY
Angle
SciTegic.value.DoubleValue
1.929

@<SCITEGIC>MOL_PROPERTY
Pdih
SciTegic.value.DoubleValue
4.018

@<SCITEGIC>MOL_PROPERTY
Idih
SciTegic.value.DoubleValue
0.000

@<SCITEGIC>MOL_PROPERTY
Tether
SciTegic.value.DoubleValue
0.000

@<TRIPOS>MOLECULE
guest-s13_vm2.mol2 : vm2 ligand conformer 69
          26          25           1
SMALL
USER_CHARGES
 
@<TRIPOS>ATOM
       1    C1      21.562485   18.856952   21.116057 C.3        1 MOL1        -0.2398
       2    H1      21.582983   18.293003   22.053730 H          1 MOL1         0.0972
       3    H2      22.232145   18.344632   20.413210 H          1 MOL1         0.0972
       4    H3      21.980476   19.854064   21.305649 H          1 MOL1         0.0972
       5    C2      20.137258   18.954879   20.524217 C.3        1 MOL1        -0.1383
       6    H4      19.729494   17.950454   20.344445 H          1 MOL1         0.0961
       7    H5      20.218039   19.428407   19.535693 H          1 MOL1         0.0961
       8    C3      19.152446   19.790681   21.382484 C.3        1 MOL1        -0.1407
       9    H6      19.676653   20.629638   21.859049 H          1 MOL1         0.0961
      10    H7      18.427122   20.254150   20.699465 H          1 MOL1         0.0961
      11    C4      18.339436   18.980958   22.428672 C.3        1 MOL1        -0.1407
      12    H8      17.775523   18.193358   21.910317 H          1 MOL1         0.0961
      13    H9      17.578698   19.640564   22.867006 H          1 MOL1         0.0961
      14    C5      19.163709   18.332284   23.570805 C.3        1 MOL1        -0.1472
      15    H10     18.472949   17.853186   24.277162 H          1 MOL1         0.0961
      16    H11     19.766402   17.517802   23.151424 H          1 MOL1         0.0961
      17    C6      20.083584   19.306419   24.343806 C.3        1 MOL1         0.1190
      18    H12     20.751378   19.791856   23.626086 H          1 MOL1         0.0923
      19    C7      19.282423   20.397304   25.076368 C.3        1 MOL1        -0.2463
      20    H13     18.561435   19.957256   25.776454 H          1 MOL1         0.0972
      21    H14     18.732485   21.029233   24.369330 H          1 MOL1         0.0972
      22    H15     19.952854   21.052994   25.645409 H          1 MOL1         0.0972
      23    N1      20.966659   18.568523   25.311591 N.4        1 MOL1        -0.5974
      24    H16     20.415724   18.087306   26.027430 H          1 MOL1         0.3625
      25    H17     21.539781   17.863717   24.839412 H          1 MOL1         0.3625
      26    H18     21.604984   19.205858   25.796134 H          1 MOL1         0.3625
@<TRIPOS>BOND
    1     1     2    1
    2     1     3    1
    3     1     4    1
    4     1     5    1
    5     5     6    1
    6     5     7    1
    7     5     8    1
    8     8     9    1
    9     8    10    1
   10     8    11    1
   11    11    12    1
   12    11    13    1
   13    11    14    1
   14    14    15    1
   15    14    16    1
   16    14    17    1
   17    17    18    1
   18    17    19    1
   19    19    20    1
   20    19    21    1
   21    19    22    1
   22    17    23    1
   23    23    24    1
   24    23    25    1
   25    23    26    1
@<TRIPOS>SUBSTRUCTURE
       1 MOL1            1 RESIDUE      1      MOL     
@<SCITEGIC>MOL_PROPERTY
VM2 Rank
SciTegic.value.IntegerValue
69

@<SCITEGIC>MOL_PROPERTY
Conf_Id
SciTegic.value.IntegerValue
535

@<SCITEGIC>MOL_PROPERTY
Probability
SciTegic.value.DoubleValue
0.01

@<SCITEGIC>MOL_PROPERTY
Sum Probability
SciTegic.value.DoubleValue
99.94

@<SCITEGIC>MOL_PROPERTY
Delta G
SciTegic.value.DoubleValue
4.473

@<SCITEGIC>MOL_PROPERTY
G
SciTegic.value.DoubleValue
28.183

@<SCITEGIC>MOL_PROPERTY
E
SciTegic.value.DoubleValue
-5.280

@<SCITEGIC>MOL_PROPERTY
-TS
SciTegic.value.DoubleValue
33.463

@<SCITEGIC>MOL_PROPERTY
U+W
SciTegic.value.DoubleValue
-26.742

@<SCITEGIC>MOL_PROPERTY
U
SciTegic.value.DoubleValue
27.819

@<SCITEGIC>MOL_PROPERTY
W
SciTegic.value.DoubleValue
-54.561

@<SCITEGIC>MOL_PROPERTY
W(PB)
SciTegic.value.DoubleValue
-56.769

@<SCITEGIC>MOL_PROPERTY
W(SA)
SciTegic.value.DoubleValue
2.208

@<SCITEGIC>MOL_PROPERTY
Valence
SciTegic.value.DoubleValue
6.496

@<SCITEGIC>MOL_PROPERTY
Coulomb
SciTegic.value.DoubleValue
20.856

@<SCITEGIC>MOL_PROPERTY
VdW
SciTegic.value.DoubleValue
0.467

@<SCITEGIC>MOL_PROPERTY
VdW6
SciTegic.value.DoubleValue
-10.243

@<SCITEGIC>MOL_PROPERTY
VdW12
SciTegic.value.DoubleValue
10.710

@<SCITEGIC>MOL_PROPERTY
Bond
SciTegic.value.DoubleValue
0.303

@<SCITEGIC>MOL_PROPERTY
Angle
SciTegic.value.DoubleValue
2.526

@<SCITEGIC>MOL_PROPERTY
Pdih
SciTegic.value.DoubleValue
3.667

@<SCITEGIC>MOL_PROPERTY
Idih
SciTegic.value.DoubleValue
0.000

@<SCITEGIC>MOL_PROPERTY
Tether
SciTegic.value.DoubleValue
0.000

@<TRIPOS>MOLECULE
guest-s13_vm2.mol2 : vm2 ligand conformer 70
          26          25           1
SMALL
USER_CHARGES
 
@<TRIPOS>ATOM
       1    C1      20.017067   20.205164   20.160680 C.3        1 MOL1        -0.2398
       2    H1      20.628648   21.051044   19.821012 H          1 MOL1         0.0972
       3    H2      19.679315   19.658530   19.270679 H          1 MOL1         0.0972
       4    H3      19.134735   20.618467   20.663278 H          1 MOL1         0.0972
       5    C2      20.836915   19.288244   21.097282 C.3        1 MOL1        -0.1383
       6    H4      21.165434   19.856221   21.974670 H          1 MOL1         0.0961
       7    H5      21.756086   18.992312   20.572609 H          1 MOL1         0.0961
       8    C3      20.079952   18.001036   21.515945 C.3        1 MOL1        -0.1407
       9    H6      19.762502   17.483841   20.599912 H          1 MOL1         0.0961
      10    H7      20.777296   17.312781   22.012947 H          1 MOL1         0.0961
      11    C4      18.832721   18.211122   22.418417 C.3        1 MOL1        -0.1407
      12    H8      18.143569   17.376751   22.228415 H          1 MOL1         0.0961
      13    H9      18.276430   19.109058   22.125508 H          1 MOL1         0.0961
      14    C5      19.127119   18.216838   23.943463 C.3        1 MOL1        -0.1472
      15    H10     18.172720   18.247750   24.485652 H          1 MOL1         0.0961
      16    H11     19.591077   17.257661   24.208421 H          1 MOL1         0.0961
      17    C6      20.029498   19.361309   24.457126 C.3        1 MOL1         0.1190
      18    H12     20.973412   19.330699   23.907153 H          1 MOL1         0.0923
      19    C7      19.379648   20.742204   24.256651 C.3        1 MOL1        -0.2463
      20    H13     19.213205   20.955797   23.195110 H          1 MOL1         0.0972
      21    H14     20.027200   21.534975   24.650816 H          1 MOL1         0.0972
      22    H15     18.413598   20.803877   24.772885 H          1 MOL1         0.0972
      23    N1      20.385080   19.162082   25.904436 N.4        1 MOL1        -0.5974
      24    H16     20.856248   18.265898   26.057547 H          1 MOL1         0.3625
      25    H17     21.013525   19.897440   26.240157 H          1 MOL1         0.3625
      26    H18     19.552739   19.177271   26.499778 H          1 MOL1         0.3625
@<TRIPOS>BOND
    1     1     2    1
    2     1     3    1
    3     1     4    1
    4     1     5    1
    5     5     6    1
    6     5     7    1
    7     5     8    1
    8     8     9    1
    9     8    10    1
   10     8    11    1
   11    11    12    1
   12    11    13    1
   13    11    14    1
   14    14    15    1
   15    14    16    1
   16    14    17    1
   17    17    18    1
   18    17    19    1
   19    19    20    1
   20    19    21    1
   21    19    22    1
   22    17    23    1
   23    23    24    1
   24    23    25    1
   25    23    26    1
@<TRIPOS>SUBSTRUCTURE
       1 MOL1            1 RESIDUE      1      MOL     
@<SCITEGIC>MOL_PROPERTY
VM2 Rank
SciTegic.value.IntegerValue
70

@<SCITEGIC>MOL_PROPERTY
Conf_Id
SciTegic.value.IntegerValue
284

@<SCITEGIC>MOL_PROPERTY
Probability
SciTegic.value.DoubleValue
0.01

@<SCITEGIC>MOL_PROPERTY
Sum Probability
SciTegic.value.DoubleValue
99.95

@<SCITEGIC>MOL_PROPERTY
Delta G
SciTegic.value.DoubleValue
4.508

@<SCITEGIC>MOL_PROPERTY
G
SciTegic.value.DoubleValue
28.218

@<SCITEGIC>MOL_PROPERTY
E
SciTegic.value.DoubleValue
-5.378

@<SCITEGIC>MOL_PROPERTY
-TS
SciTegic.value.DoubleValue
33.596

@<SCITEGIC>MOL_PROPERTY
U+W
SciTegic.value.DoubleValue
-26.840

@<SCITEGIC>MOL_PROPERTY
U
SciTegic.value.DoubleValue
27.574

@<SCITEGIC>MOL_PROPERTY
W
SciTegic.value.DoubleValue
-54.414

@<SCITEGIC>MOL_PROPERTY
W(PB)
SciTegic.value.DoubleValue
-56.626

@<SCITEGIC>MOL_PROPERTY
W(SA)
SciTegic.value.DoubleValue
2.212

@<SCITEGIC>MOL_PROPERTY
Valence
SciTegic.value.DoubleValue
6.650

@<SCITEGIC>MOL_PROPERTY
Coulomb
SciTegic.value.DoubleValue
20.286

@<SCITEGIC>MOL_PROPERTY
VdW
SciTegic.value.DoubleValue
0.638

@<SCITEGIC>MOL_PROPERTY
VdW6
SciTegic.value.DoubleValue
-9.864

@<SCITEGIC>MOL_PROPERTY
VdW12
SciTegic.value.DoubleValue
10.501

@<SCITEGIC>MOL_PROPERTY
Bond
SciTegic.value.DoubleValue
0.322

@<SCITEGIC>MOL_PROPERTY
Angle
SciTegic.value.DoubleValue
2.715

@<SCITEGIC>MOL_PROPERTY
Pdih
SciTegic.value.DoubleValue
3.614

@<SCITEGIC>MOL_PROPERTY
Idih
SciTegic.value.DoubleValue
0.000

@<SCITEGIC>MOL_PROPERTY
Tether
SciTegic.value.DoubleValue
0.000

@<TRIPOS>MOLECULE
guest-s13_vm2.mol2 : vm2 ligand conformer 71
          26          25           1
SMALL
USER_CHARGES
 
@<TRIPOS>ATOM
       1    C1      20.732634   18.412027   19.875513 C.3        1 MOL1        -0.2398
       2    H1      20.774795   17.506029   19.257264 H          1 MOL1         0.0972
       3    H2      20.825058   19.278898   19.208474 H          1 MOL1         0.0972
       4    H3      21.602871   18.395898   20.543492 H          1 MOL1         0.0972
       5    C2      19.409493   18.462310   20.672289 C.3        1 MOL1        -0.1383
       6    H4      19.353181   17.600817   21.350122 H          1 MOL1         0.0961
       7    H5      18.571793   18.342619   19.971126 H          1 MOL1         0.0961
       8    C3      19.205428   19.784336   21.457231 C.3        1 MOL1        -0.1407
       9    H6      19.108380   20.604537   20.732692 H          1 MOL1         0.0961
      10    H7      18.240450   19.737097   21.974456 H          1 MOL1         0.0961
      11    C4      20.334983   20.155187   22.459610 C.3        1 MOL1        -0.1407
      12    H8      20.123609   21.140978   22.896218 H          1 MOL1         0.0961
      13    H9      21.267251   20.289760   21.895496 H          1 MOL1         0.0961
      14    C5      20.591115   19.131787   23.601477 C.3        1 MOL1        -0.1472
      15    H10     20.392445   18.107878   23.265853 H          1 MOL1         0.0961
      16    H11     21.664404   19.159865   23.831164 H          1 MOL1         0.0961
      17    C6      19.834119   19.413844   24.921830 C.3        1 MOL1         0.1190
      18    H12     20.106278   20.417303   25.263298 H          1 MOL1         0.0923
      19    C7      18.305866   19.360899   24.761499 C.3        1 MOL1        -0.2463
      20    H13     17.947373   20.199193   24.154034 H          1 MOL1         0.0972
      21    H14     17.810692   19.438957   25.737195 H          1 MOL1         0.0972
      22    H15     17.986450   18.422888   24.290611 H          1 MOL1         0.0972
      23    N1      20.274362   18.467611   26.004551 N.4        1 MOL1        -0.5974
      24    H16     20.049483   17.497654   25.767847 H          1 MOL1         0.3625
      25    H17     21.284617   18.519530   26.163483 H          1 MOL1         0.3625
      26    H18     19.815375   18.678801   26.895119 H          1 MOL1         0.3625
@<TRIPOS>BOND
    1     1     2    1
    2     1     3    1
    3     1     4    1
    4     1     5    1
    5     5     6    1
    6     5     7    1
    7     5     8    1
    8     8     9    1
    9     8    10    1
   10     8    11    1
   11    11    12    1
   12    11    13    1
   13    11    14    1
   14    14    15    1
   15    14    16    1
   16    14    17    1
   17    17    18    1
   18    17    19    1
   19    19    20    1
   20    19    21    1
   21    19    22    1
   22    17    23    1
   23    23    24    1
   24    23    25    1
   25    23    26    1
@<TRIPOS>SUBSTRUCTURE
       1 MOL1            1 RESIDUE      1      MOL     
@<SCITEGIC>MOL_PROPERTY
VM2 Rank
SciTegic.value.IntegerValue
71

@<SCITEGIC>MOL_PROPERTY
Conf_Id
SciTegic.value.IntegerValue
90

@<SCITEGIC>MOL_PROPERTY
Probability
SciTegic.value.DoubleValue
0.01

@<SCITEGIC>MOL_PROPERTY
Sum Probability
SciTegic.value.DoubleValue
99.95

@<SCITEGIC>MOL_PROPERTY
Delta G
SciTegic.value.DoubleValue
4.616

@<SCITEGIC>MOL_PROPERTY
G
SciTegic.value.DoubleValue
28.326

@<SCITEGIC>MOL_PROPERTY
E
SciTegic.value.DoubleValue
-4.565

@<SCITEGIC>MOL_PROPERTY
-TS
SciTegic.value.DoubleValue
32.890

@<SCITEGIC>MOL_PROPERTY
U+W
SciTegic.value.DoubleValue
-26.026

@<SCITEGIC>MOL_PROPERTY
U
SciTegic.value.DoubleValue
28.262

@<SCITEGIC>MOL_PROPERTY
W
SciTegic.value.DoubleValue
-54.288

@<SCITEGIC>MOL_PROPERTY
W(PB)
SciTegic.value.DoubleValue
-56.488

@<SCITEGIC>MOL_PROPERTY
W(SA)
SciTegic.value.DoubleValue
2.200

@<SCITEGIC>MOL_PROPERTY
Valence
SciTegic.value.DoubleValue
7.096

@<SCITEGIC>MOL_PROPERTY
Coulomb
SciTegic.value.DoubleValue
19.990

@<SCITEGIC>MOL_PROPERTY
VdW
SciTegic.value.DoubleValue
1.176

@<SCITEGIC>MOL_PROPERTY
VdW6
SciTegic.value.DoubleValue
-9.405

@<SCITEGIC>MOL_PROPERTY
VdW12
SciTegic.value.DoubleValue
10.580

@<SCITEGIC>MOL_PROPERTY
Bond
SciTegic.value.DoubleValue
0.360

@<SCITEGIC>MOL_PROPERTY
Angle
SciTegic.value.DoubleValue
2.785

@<SCITEGIC>MOL_PROPERTY
Pdih
SciTegic.value.DoubleValue
3.951

@<SCITEGIC>MOL_PROPERTY
Idih
SciTegic.value.DoubleValue
0.000

@<SCITEGIC>MOL_PROPERTY
Tether
SciTegic.value.DoubleValue
0.000

@<TRIPOS>MOLECULE
guest-s13_vm2.mol2 : vm2 ligand conformer 72
          26          25           1
SMALL
USER_CHARGES
 
@<TRIPOS>ATOM
       1    C1      19.757561   18.235228   19.878707 C.3        1 MOL1        -0.2398
       2    H1      20.536680   18.607188   19.200798 H          1 MOL1         0.0972
       3    H2      20.175810   17.405373   20.461833 H          1 MOL1         0.0972
       4    H3      18.943248   17.829781   19.264419 H          1 MOL1         0.0972
       5    C2      19.233749   19.363337   20.795677 C.3        1 MOL1        -0.1383
       6    H4      18.471596   18.958885   21.473912 H          1 MOL1         0.0961
       7    H5      18.720032   20.111792   20.176399 H          1 MOL1         0.0961
       8    C3      20.354420   20.072708   21.598830 C.3        1 MOL1        -0.1407
       9    H6      21.055997   20.530961   20.888233 H          1 MOL1         0.0961
      10    H7      19.926681   20.910575   22.163707 H          1 MOL1         0.0961
      11    C4      21.158192   19.156605   22.558177 C.3        1 MOL1        -0.1407
      12    H8      21.942188   19.756326   23.040781 H          1 MOL1         0.0961
      13    H9      21.693839   18.402452   21.966647 H          1 MOL1         0.0961
      14    C5      20.335798   18.434531   23.659000 C.3        1 MOL1        -0.1472
      15    H10     19.554224   17.804737   23.215622 H          1 MOL1         0.0961
      16    H11     21.021023   17.735898   24.156959 H          1 MOL1         0.0961
      17    C6      19.737784   19.382370   24.728232 C.3        1 MOL1         0.1190
      18    H12     20.335680   20.298714   24.747025 H          1 MOL1         0.0923
      19    C7      18.273880   19.752087   24.427289 C.3        1 MOL1        -0.2463
      20    H13     17.878096   20.419355   25.202781 H          1 MOL1         0.0972
      21    H14     17.638405   18.858370   24.394014 H          1 MOL1         0.0972
      22    H15     18.176166   20.273942   23.470547 H          1 MOL1         0.0972
      23    N1      19.836616   18.791133   26.108089 N.4        1 MOL1        -0.5974
      24    H16     20.806805   18.580541   26.359301 H          1 MOL1         0.3625
      25    H17     19.471763   19.433502   26.817102 H          1 MOL1         0.3625
      26    H18     19.303228   17.920657   26.181385 H          1 MOL1         0.3625
@<TRIPOS>BOND
    1     1     2    1
    2     1     3    1
    3     1     4    1
    4     1     5    1
    5     5     6    1
    6     5     7    1
    7     5     8    1
    8     8     9    1
    9     8    10    1
   10     8    11    1
   11    11    12    1
   12    11    13    1
   13    11    14    1
   14    14    15    1
   15    14    16    1
   16    14    17    1
   17    17    18    1
   18    17    19    1
   19    19    20    1
   20    19    21    1
   21    19    22    1
   22    17    23    1
   23    23    24    1
   24    23    25    1
   25    23    26    1
@<TRIPOS>SUBSTRUCTURE
       1 MOL1            1 RESIDUE      1      MOL     
@<SCITEGIC>MOL_PROPERTY
VM2 Rank
SciTegic.value.IntegerValue
72

@<SCITEGIC>MOL_PROPERTY
Conf_Id
SciTegic.value.IntegerValue
234

@<SCITEGIC>MOL_PROPERTY
Probability
SciTegic.value.DoubleValue
0.01

@<SCITEGIC>MOL_PROPERTY
Sum Probability
SciTegic.value.DoubleValue
99.96

@<SCITEGIC>MOL_PROPERTY
Delta G
SciTegic.value.DoubleValue
4.620

@<SCITEGIC>MOL_PROPERTY
G
SciTegic.value.DoubleValue
28.330

@<SCITEGIC>MOL_PROPERTY
E
SciTegic.value.DoubleValue
-5.037

@<SCITEGIC>MOL_PROPERTY
-TS
SciTegic.value.DoubleValue
33.367

@<SCITEGIC>MOL_PROPERTY
U+W
SciTegic.value.DoubleValue
-26.499

@<SCITEGIC>MOL_PROPERTY
U
SciTegic.value.DoubleValue
27.871

@<SCITEGIC>MOL_PROPERTY
W
SciTegic.value.DoubleValue
-54.370

@<SCITEGIC>MOL_PROPERTY
W(PB)
SciTegic.value.DoubleValue
-56.583

@<SCITEGIC>MOL_PROPERTY
W(SA)
SciTegic.value.DoubleValue
2.213

@<SCITEGIC>MOL_PROPERTY
Valence
SciTegic.value.DoubleValue
6.984

@<SCITEGIC>MOL_PROPERTY
Coulomb
SciTegic.value.DoubleValue
20.043

@<SCITEGIC>MOL_PROPERTY
VdW
SciTegic.value.DoubleValue
0.844

@<SCITEGIC>MOL_PROPERTY
VdW6
SciTegic.value.DoubleValue
-9.755

@<SCITEGIC>MOL_PROPERTY
VdW12
SciTegic.value.DoubleValue
10.599

@<SCITEGIC>MOL_PROPERTY
Bond
SciTegic.value.DoubleValue
0.302

@<SCITEGIC>MOL_PROPERTY
Angle
SciTegic.value.DoubleValue
2.441

@<SCITEGIC>MOL_PROPERTY
Pdih
SciTegic.value.DoubleValue
4.240

@<SCITEGIC>MOL_PROPERTY
Idih
SciTegic.value.DoubleValue
0.000

@<SCITEGIC>MOL_PROPERTY
Tether
SciTegic.value.DoubleValue
0.000

@<TRIPOS>MOLECULE
guest-s13_vm2.mol2 : vm2 ligand conformer 73
          26          25           1
SMALL
USER_CHARGES
 
@<TRIPOS>ATOM
       1    C1      20.818694   17.992797   20.080450 C.3        1 MOL1        -0.2398
       2    H1      20.943994   17.782296   19.010445 H          1 MOL1         0.0972
       3    H2      21.756573   18.432420   20.442078 H          1 MOL1         0.0972
       4    H3      20.665927   17.035261   20.594914 H          1 MOL1         0.0972
       5    C2      19.621694   18.943751   20.307748 C.3        1 MOL1        -0.1383
       6    H4      18.730104   18.512384   19.831533 H          1 MOL1         0.0961
       7    H5      19.808284   19.900469   19.800163 H          1 MOL1         0.0961
       8    C3      19.314732   19.195084   21.803581 C.3        1 MOL1        -0.1407
       9    H6      18.399653   19.798791   21.876348 H          1 MOL1         0.0961
      10    H7      19.100410   18.232643   22.283567 H          1 MOL1         0.0961
      11    C4      20.463078   19.917806   22.549576 C.3        1 MOL1        -0.1407
      12    H8      20.789987   20.772357   21.941281 H          1 MOL1         0.0961
      13    H9      21.335885   19.256653   22.624919 H          1 MOL1         0.0961
      14    C5      20.090033   20.457272   23.959766 C.3        1 MOL1        -0.1472
      15    H10     20.965571   20.996778   24.343998 H          1 MOL1         0.0961
      16    H11     19.302500   21.216780   23.867501 H          1 MOL1         0.0961
      17    C6      19.684700   19.417592   25.036904 C.3        1 MOL1         0.1190
      18    H12     19.890132   19.878237   26.008192 H          1 MOL1         0.0923
      19    C7      18.178250   19.098580   25.019735 C.3        1 MOL1        -0.2463
      20    H13     17.585117   20.018483   25.092767 H          1 MOL1         0.0972
      21    H14     17.912944   18.468701   25.877637 H          1 MOL1         0.0972
      22    H15     17.872289   18.568322   24.113229 H          1 MOL1         0.0972
      23    N1      20.516820   18.165118   24.996238 N.4        1 MOL1        -0.5974
      24    H16     21.513637   18.375982   25.097825 H          1 MOL1         0.3625
      25    H17     20.261402   17.520222   25.749437 H          1 MOL1         0.3625
      26    H18     20.394859   17.671125   24.108826 H          1 MOL1         0.3625
@<TRIPOS>BOND
    1     1     2    1
    2     1     3    1
    3     1     4    1
    4     1     5    1
    5     5     6    1
    6     5     7    1
    7     5     8    1
    8     8     9    1
    9     8    10    1
   10     8    11    1
   11    11    12    1
   12    11    13    1
   13    11    14    1
   14    14    15    1
   15    14    16    1
   16    14    17    1
   17    17    18    1
   18    17    19    1
   19    19    20    1
   20    19    21    1
   21    19    22    1
   22    17    23    1
   23    23    24    1
   24    23    25    1
   25    23    26    1
@<TRIPOS>SUBSTRUCTURE
       1 MOL1            1 RESIDUE      1      MOL     
@<SCITEGIC>MOL_PROPERTY
VM2 Rank
SciTegic.value.IntegerValue
73

@<SCITEGIC>MOL_PROPERTY
Conf_Id
SciTegic.value.IntegerValue
835

@<SCITEGIC>MOL_PROPERTY
Probability
SciTegic.value.DoubleValue
0.01

@<SCITEGIC>MOL_PROPERTY
Sum Probability
SciTegic.value.DoubleValue
99.97

@<SCITEGIC>MOL_PROPERTY
Delta G
SciTegic.value.DoubleValue
4.722

@<SCITEGIC>MOL_PROPERTY
G
SciTegic.value.DoubleValue
28.432

@<SCITEGIC>MOL_PROPERTY
E
SciTegic.value.DoubleValue
-4.752

@<SCITEGIC>MOL_PROPERTY
-TS
SciTegic.value.DoubleValue
33.184

@<SCITEGIC>MOL_PROPERTY
U+W
SciTegic.value.DoubleValue
-26.214

@<SCITEGIC>MOL_PROPERTY
U
SciTegic.value.DoubleValue
27.935

@<SCITEGIC>MOL_PROPERTY
W
SciTegic.value.DoubleValue
-54.148

@<SCITEGIC>MOL_PROPERTY
W(PB)
SciTegic.value.DoubleValue
-56.370

@<SCITEGIC>MOL_PROPERTY
W(SA)
SciTegic.value.DoubleValue
2.221

@<SCITEGIC>MOL_PROPERTY
Valence
SciTegic.value.DoubleValue
6.278

@<SCITEGIC>MOL_PROPERTY
Coulomb
SciTegic.value.DoubleValue
20.605

@<SCITEGIC>MOL_PROPERTY
VdW
SciTegic.value.DoubleValue
1.052

@<SCITEGIC>MOL_PROPERTY
VdW6
SciTegic.value.DoubleValue
-9.401

@<SCITEGIC>MOL_PROPERTY
VdW12
SciTegic.value.DoubleValue
10.453

@<SCITEGIC>MOL_PROPERTY
Bond
SciTegic.value.DoubleValue
0.315

@<SCITEGIC>MOL_PROPERTY
Angle
SciTegic.value.DoubleValue
2.522

@<SCITEGIC>MOL_PROPERTY
Pdih
SciTegic.value.DoubleValue
3.440

@<SCITEGIC>MOL_PROPERTY
Idih
SciTegic.value.DoubleValue
0.000

@<SCITEGIC>MOL_PROPERTY
Tether
SciTegic.value.DoubleValue
0.000

@<TRIPOS>MOLECULE
guest-s13_vm2.mol2 : vm2 ligand conformer 74
          26          25           1
SMALL
USER_CHARGES
 
@<TRIPOS>ATOM
       1    C1      19.651552   18.268046   19.964371 C.3        1 MOL1        -0.2398
       2    H1      20.022619   18.930561   19.171702 H          1 MOL1         0.0972
       3    H2      19.515120   17.268960   19.530724 H          1 MOL1         0.0972
       4    H3      18.664853   18.629097   20.280209 H          1 MOL1         0.0972
       5    C2      20.640353   18.213279   21.150509 C.3        1 MOL1        -0.1383
       6    H4      21.574954   17.746594   20.809160 H          1 MOL1         0.0961
       7    H5      20.240013   17.552347   21.929584 H          1 MOL1         0.0961
       8    C3      20.970034   19.610289   21.736179 C.3        1 MOL1        -0.1407
       9    H6      21.735480   19.512800   22.515267 H          1 MOL1         0.0961
      10    H7      21.442392   20.214034   20.948911 H          1 MOL1         0.0961
      11    C4      19.753796   20.400784   22.289035 C.3        1 MOL1        -0.1407
      12    H8      19.100170   20.670901   21.448866 H          1 MOL1         0.0961
      13    H9      20.112087   21.356622   22.695487 H          1 MOL1         0.0961
      14    C5      18.893307   19.689410   23.369464 C.3        1 MOL1        -0.1472
      15    H10     18.018295   20.327891   23.550002 H          1 MOL1         0.0961
      16    H11     18.491134   18.742886   22.987121 H          1 MOL1         0.0961
      17    C6      19.612148   19.459776   24.720051 C.3        1 MOL1         0.1190
      18    H12     20.188460   20.358846   24.958927 H          1 MOL1         0.0923
      19    C7      18.584760   19.234857   25.841781 C.3        1 MOL1        -0.2463
      20    H13     17.967018   18.350189   25.642512 H          1 MOL1         0.0972
      21    H14     17.919084   20.101209   25.941935 H          1 MOL1         0.0972
      22    H15     19.087436   19.090970   26.806179 H          1 MOL1         0.0972
      23    N1      20.582050   18.311558   24.682610 N.4        1 MOL1        -0.5974
      24    H16     21.095835   18.226942   25.564360 H          1 MOL1         0.3625
      25    H17     20.099225   17.423688   24.523025 H          1 MOL1         0.3625
      26    H18     21.267589   18.430070   23.933138 H          1 MOL1         0.3625
@<TRIPOS>BOND
    1     1     2    1
    2     1     3    1
    3     1     4    1
    4     1     5    1
    5     5     6    1
    6     5     7    1
    7     5     8    1
    8     8     9    1
    9     8    10    1
   10     8    11    1
   11    11    12    1
   12    11    13    1
   13    11    14    1
   14    14    15    1
   15    14    16    1
   16    14    17    1
   17    17    18    1
   18    17    19    1
   19    19    20    1
   20    19    21    1
   21    19    22    1
   22    17    23    1
   23    23    24    1
   24    23    25    1
   25    23    26    1
@<TRIPOS>SUBSTRUCTURE
       1 MOL1            1 RESIDUE      1      MOL     
@<SCITEGIC>MOL_PROPERTY
VM2 Rank
SciTegic.value.IntegerValue
74

@<SCITEGIC>MOL_PROPERTY
Conf_Id
SciTegic.value.IntegerValue
231

@<SCITEGIC>MOL_PROPERTY
Probability
SciTegic.value.DoubleValue
0.01

@<SCITEGIC>MOL_PROPERTY
Sum Probability
SciTegic.value.DoubleValue
99.97

@<SCITEGIC>MOL_PROPERTY
Delta G
SciTegic.value.DoubleValue
4.740

@<SCITEGIC>MOL_PROPERTY
G
SciTegic.value.DoubleValue
28.450

@<SCITEGIC>MOL_PROPERTY
E
SciTegic.value.DoubleValue
-4.948

@<SCITEGIC>MOL_PROPERTY
-TS
SciTegic.value.DoubleValue
33.398

@<SCITEGIC>MOL_PROPERTY
U+W
SciTegic.value.DoubleValue
-26.410

@<SCITEGIC>MOL_PROPERTY
U
SciTegic.value.DoubleValue
27.564

@<SCITEGIC>MOL_PROPERTY
W
SciTegic.value.DoubleValue
-53.974

@<SCITEGIC>MOL_PROPERTY
W(PB)
SciTegic.value.DoubleValue
-56.203

@<SCITEGIC>MOL_PROPERTY
W(SA)
SciTegic.value.DoubleValue
2.228

@<SCITEGIC>MOL_PROPERTY
Valence
SciTegic.value.DoubleValue
5.430

@<SCITEGIC>MOL_PROPERTY
Coulomb
SciTegic.value.DoubleValue
21.472

@<SCITEGIC>MOL_PROPERTY
VdW
SciTegic.value.DoubleValue
0.662

@<SCITEGIC>MOL_PROPERTY
VdW6
SciTegic.value.DoubleValue
-9.933

@<SCITEGIC>MOL_PROPERTY
VdW12
SciTegic.value.DoubleValue
10.595

@<SCITEGIC>MOL_PROPERTY
Bond
SciTegic.value.DoubleValue
0.322

@<SCITEGIC>MOL_PROPERTY
Angle
SciTegic.value.DoubleValue
2.461

@<SCITEGIC>MOL_PROPERTY
Pdih
SciTegic.value.DoubleValue
2.647

@<SCITEGIC>MOL_PROPERTY
Idih
SciTegic.value.DoubleValue
0.000

@<SCITEGIC>MOL_PROPERTY
Tether
SciTegic.value.DoubleValue
0.000

@<TRIPOS>MOLECULE
guest-s13_vm2.mol2 : vm2 ligand conformer 75
          26          25           1
SMALL
USER_CHARGES
 
@<TRIPOS>ATOM
       1    C1      20.956668   17.782716   20.083744 C.3        1 MOL1        -0.2398
       2    H1      20.562221   16.857039   19.644852 H          1 MOL1         0.0972
       3    H2      21.285326   18.431215   19.261114 H          1 MOL1         0.0972
       4    H3      21.836949   17.521643   20.685358 H          1 MOL1         0.0972
       5    C2      19.880807   18.479300   20.943257 C.3        1 MOL1        -0.1383
       6    H4      19.544472   17.786113   21.724355 H          1 MOL1         0.0961
       7    H5      19.002773   18.698419   20.319651 H          1 MOL1         0.0961
       8    C3      20.412307   19.791707   21.566986 C.3        1 MOL1        -0.1407
       9    H6      21.308019   19.597483   22.169165 H          1 MOL1         0.0961
      10    H7      20.746197   20.453400   20.755631 H          1 MOL1         0.0961
      11    C4      19.356105   20.555708   22.405775 C.3        1 MOL1        -0.1407
      12    H8      18.539543   20.864213   21.738418 H          1 MOL1         0.0961
      13    H9      19.807744   21.488335   22.771318 H          1 MOL1         0.0961
      14    C5      18.740349   19.794532   23.612396 C.3        1 MOL1        -0.1472
      15    H10     17.981652   20.455825   24.051812 H          1 MOL1         0.0961
      16    H11     18.192450   18.906070   23.274172 H          1 MOL1         0.0961
      17    C6      19.752598   19.408558   24.717090 C.3        1 MOL1         0.1190
      18    H12     20.457212   20.236593   24.841316 H          1 MOL1         0.0923
      19    C7      19.028918   19.187176   26.055614 C.3        1 MOL1        -0.2463
      20    H13     18.294927   18.375050   25.980337 H          1 MOL1         0.0972
      21    H14     18.501781   20.096523   26.370187 H          1 MOL1         0.0972
      22    H15     19.744370   18.929571   26.846329 H          1 MOL1         0.0972
      23    N1      20.560247   18.188302   24.369138 N.4        1 MOL1        -0.5974
      24    H16     19.967898   17.355729   24.313413 H          1 MOL1         0.3625
      25    H17     21.025197   18.297223   23.464189 H          1 MOL1         0.3625
      26    H18     21.281949   18.003967   25.071952 H          1 MOL1         0.3625
@<TRIPOS>BOND
    1     1     2    1
    2     1     3    1
    3     1     4    1
    4     1     5    1
    5     5     6    1
    6     5     7    1
    7     5     8    1
    8     8     9    1
    9     8    10    1
   10     8    11    1
   11    11    12    1
   12    11    13    1
   13    11    14    1
   14    14    15    1
   15    14    16    1
   16    14    17    1
   17    17    18    1
   18    17    19    1
   19    19    20    1
   20    19    21    1
   21    19    22    1
   22    17    23    1
   23    23    24    1
   24    23    25    1
   25    23    26    1
@<TRIPOS>SUBSTRUCTURE
       1 MOL1            1 RESIDUE      1      MOL     
@<SCITEGIC>MOL_PROPERTY
VM2 Rank
SciTegic.value.IntegerValue
75

@<SCITEGIC>MOL_PROPERTY
Conf_Id
SciTegic.value.IntegerValue
556

@<SCITEGIC>MOL_PROPERTY
Probability
SciTegic.value.DoubleValue
0.01

@<SCITEGIC>MOL_PROPERTY
Sum Probability
SciTegic.value.DoubleValue
99.98

@<SCITEGIC>MOL_PROPERTY
Delta G
SciTegic.value.DoubleValue
4.843

@<SCITEGIC>MOL_PROPERTY
G
SciTegic.value.DoubleValue
28.553

@<SCITEGIC>MOL_PROPERTY
E
SciTegic.value.DoubleValue
-4.670

@<SCITEGIC>MOL_PROPERTY
-TS
SciTegic.value.DoubleValue
33.223

@<SCITEGIC>MOL_PROPERTY
U+W
SciTegic.value.DoubleValue
-26.132

@<SCITEGIC>MOL_PROPERTY
U
SciTegic.value.DoubleValue
27.025

@<SCITEGIC>MOL_PROPERTY
W
SciTegic.value.DoubleValue
-53.157

@<SCITEGIC>MOL_PROPERTY
W(PB)
SciTegic.value.DoubleValue
-55.402

@<SCITEGIC>MOL_PROPERTY
W(SA)
SciTegic.value.DoubleValue
2.245

@<SCITEGIC>MOL_PROPERTY
Valence
SciTegic.value.DoubleValue
5.027

@<SCITEGIC>MOL_PROPERTY
Coulomb
SciTegic.value.DoubleValue
21.327

@<SCITEGIC>MOL_PROPERTY
VdW
SciTegic.value.DoubleValue
0.671

@<SCITEGIC>MOL_PROPERTY
VdW6
SciTegic.value.DoubleValue
-9.248

@<SCITEGIC>MOL_PROPERTY
VdW12
SciTegic.value.DoubleValue
9.919

@<SCITEGIC>MOL_PROPERTY
Bond
SciTegic.value.DoubleValue
0.272

@<SCITEGIC>MOL_PROPERTY
Angle
SciTegic.value.DoubleValue
2.161

@<SCITEGIC>MOL_PROPERTY
Pdih
SciTegic.value.DoubleValue
2.594

@<SCITEGIC>MOL_PROPERTY
Idih
SciTegic.value.DoubleValue
0.000

@<SCITEGIC>MOL_PROPERTY
Tether
SciTegic.value.DoubleValue
0.000

@<TRIPOS>MOLECULE
guest-s13_vm2.mol2 : vm2 ligand conformer 76
          26          25           1
SMALL
USER_CHARGES
 
@<TRIPOS>ATOM
       1    C1      20.661827   17.745242   20.099792 C.3        1 MOL1        -0.2398
       2    H1      21.657938   17.630535   19.652941 H          1 MOL1         0.0972
       3    H2      20.432048   16.824284   20.651149 H          1 MOL1         0.0972
       4    H3      19.935951   17.843992   19.282102 H          1 MOL1         0.0972
       5    C2      20.620702   18.976207   21.029585 C.3        1 MOL1        -0.1383
       6    H4      20.885662   19.874934   20.455244 H          1 MOL1         0.0961
       7    H5      21.388009   18.863429   21.805503 H          1 MOL1         0.0961
       8    C3      19.223006   19.162649   21.666054 C.3        1 MOL1        -0.1407
       9    H6      18.483381   19.266699   20.860069 H          1 MOL1         0.0961
      10    H7      18.928986   18.261552   22.217055 H          1 MOL1         0.0961
      11    C4      19.118067   20.410018   22.580188 C.3        1 MOL1        -0.1407
      12    H8      18.079916   20.511097   22.923716 H          1 MOL1         0.0961
      13    H9      19.306754   21.303040   21.968610 H          1 MOL1         0.0961
      14    C5      20.074421   20.451982   23.808381 C.3        1 MOL1        -0.1472
      15    H10     21.115975   20.507619   23.468083 H          1 MOL1         0.0961
      16    H11     19.896102   21.400319   24.332132 H          1 MOL1         0.0961
      17    C6      19.940409   19.314646   24.853636 C.3        1 MOL1         0.1190
      18    H12     20.516120   19.622268   25.732079 H          1 MOL1         0.0923
      19    C7      18.486266   19.105646   25.311259 C.3        1 MOL1        -0.2463
      20    H13     17.861278   18.703299   24.505187 H          1 MOL1         0.0972
      21    H14     18.045570   20.051674   25.649392 H          1 MOL1         0.0972
      22    H15     18.445428   18.400936   26.150770 H          1 MOL1         0.0972
      23    N1      20.563301   18.021610   24.405104 N.4        1 MOL1        -0.5974
      24    H16     20.468599   17.293689   25.119089 H          1 MOL1         0.3625
      25    H17     20.123927   17.678148   23.548068 H          1 MOL1         0.3625
      26    H18     21.562965   18.134894   24.215357 H          1 MOL1         0.3625
@<TRIPOS>BOND
    1     1     2    1
    2     1     3    1
    3     1     4    1
    4     1     5    1
    5     5     6    1
    6     5     7    1
    7     5     8    1
    8     8     9    1
    9     8    10    1
   10     8    11    1
   11    11    12    1
   12    11    13    1
   13    11    14    1
   14    14    15    1
   15    14    16    1
   16    14    17    1
   17    17    18    1
   18    17    19    1
   19    19    20    1
   20    19    21    1
   21    19    22    1
   22    17    23    1
   23    23    24    1
   24    23    25    1
   25    23    26    1
@<TRIPOS>SUBSTRUCTURE
       1 MOL1            1 RESIDUE      1      MOL     
@<SCITEGIC>MOL_PROPERTY
VM2 Rank
SciTegic.value.IntegerValue
76

@<SCITEGIC>MOL_PROPERTY
Conf_Id
SciTegic.value.IntegerValue
496

@<SCITEGIC>MOL_PROPERTY
Probability
SciTegic.value.DoubleValue
0.00

@<SCITEGIC>MOL_PROPERTY
Sum Probability
SciTegic.value.DoubleValue
99.98

@<SCITEGIC>MOL_PROPERTY
Delta G
SciTegic.value.DoubleValue
4.903

@<SCITEGIC>MOL_PROPERTY
G
SciTegic.value.DoubleValue
28.613

@<SCITEGIC>MOL_PROPERTY
E
SciTegic.value.DoubleValue
-5.030

@<SCITEGIC>MOL_PROPERTY
-TS
SciTegic.value.DoubleValue
33.643

@<SCITEGIC>MOL_PROPERTY
U+W
SciTegic.value.DoubleValue
-26.492

@<SCITEGIC>MOL_PROPERTY
U
SciTegic.value.DoubleValue
27.281

@<SCITEGIC>MOL_PROPERTY
W
SciTegic.value.DoubleValue
-53.773

@<SCITEGIC>MOL_PROPERTY
W(PB)
SciTegic.value.DoubleValue
-55.969

@<SCITEGIC>MOL_PROPERTY
W(SA)
SciTegic.value.DoubleValue
2.197

@<SCITEGIC>MOL_PROPERTY
Valence
SciTegic.value.DoubleValue
5.160

@<SCITEGIC>MOL_PROPERTY
Coulomb
SciTegic.value.DoubleValue
21.563

@<SCITEGIC>MOL_PROPERTY
VdW
SciTegic.value.DoubleValue
0.557

@<SCITEGIC>MOL_PROPERTY
VdW6
SciTegic.value.DoubleValue
-10.215

@<SCITEGIC>MOL_PROPERTY
VdW12
SciTegic.value.DoubleValue
10.772

@<SCITEGIC>MOL_PROPERTY
Bond
SciTegic.value.DoubleValue
0.332

@<SCITEGIC>MOL_PROPERTY
Angle
SciTegic.value.DoubleValue
2.658

@<SCITEGIC>MOL_PROPERTY
Pdih
SciTegic.value.DoubleValue
2.170

@<SCITEGIC>MOL_PROPERTY
Idih
SciTegic.value.DoubleValue
0.000

@<SCITEGIC>MOL_PROPERTY
Tether
SciTegic.value.DoubleValue
0.000

@<TRIPOS>MOLECULE
guest-s13_vm2.mol2 : vm2 ligand conformer 77
          26          25           1
SMALL
USER_CHARGES
 
@<TRIPOS>ATOM
       1    C1      20.199651   19.077879   19.445064 C.3        1 MOL1        -0.2398
       2    H1      20.518637   18.580214   18.520127 H          1 MOL1         0.0972
       3    H2      19.203558   19.504464   19.269502 H          1 MOL1         0.0972
       4    H3      20.898875   19.901892   19.632002 H          1 MOL1         0.0972
       5    C2      20.174707   18.071604   20.618285 C.3        1 MOL1        -0.1383
       6    H4      21.187829   17.685424   20.797724 H          1 MOL1         0.0961
       7    H5      19.564226   17.206315   20.324259 H          1 MOL1         0.0961
       8    C3      19.596942   18.660982   21.928077 C.3        1 MOL1        -0.1407
       9    H6      18.594385   19.067631   21.736727 H          1 MOL1         0.0961
      10    H7      19.473519   17.833335   22.636009 H          1 MOL1         0.0961
      11    C4      20.495897   19.750227   22.564117 C.3        1 MOL1        -0.1407
      12    H8      20.707115   20.523537   21.814987 H          1 MOL1         0.0961
      13    H9      21.470905   19.317316   22.824549 H          1 MOL1         0.0961
      14    C5      19.883005   20.466790   23.801306 C.3        1 MOL1        -0.1472
      15    H10     20.594630   21.242635   24.112655 H          1 MOL1         0.0961
      16    H11     18.978675   21.011658   23.499751 H          1 MOL1         0.0961
      17    C6      19.575199   19.602252   25.051671 C.3        1 MOL1         0.1190
      18    H12     19.616439   20.275105   25.913859 H          1 MOL1         0.0923
      19    C7      18.151575   19.014918   25.031399 C.3        1 MOL1        -0.2463
      20    H13     18.009262   18.285078   24.229181 H          1 MOL1         0.0972
      21    H14     17.406177   19.809450   24.902970 H          1 MOL1         0.0972
      22    H15     17.933297   18.511747   25.981300 H          1 MOL1         0.0972
      23    N1      20.611025   18.543348   25.314081 N.4        1 MOL1        -0.5974
      24    H16     21.544370   18.951890   25.415944 H          1 MOL1         0.3625
      25    H17     20.408119   18.024390   26.173108 H          1 MOL1         0.3625
      26    H18     20.651999   17.869326   24.545851 H          1 MOL1         0.3625
@<TRIPOS>BOND
    1     1     2    1
    2     1     3    1
    3     1     4    1
    4     1     5    1
    5     5     6    1
    6     5     7    1
    7     5     8    1
    8     8     9    1
    9     8    10    1
   10     8    11    1
   11    11    12    1
   12    11    13    1
   13    11    14    1
   14    14    15    1
   15    14    16    1
   16    14    17    1
   17    17    18    1
   18    17    19    1
   19    19    20    1
   20    19    21    1
   21    19    22    1
   22    17    23    1
   23    23    24    1
   24    23    25    1
   25    23    26    1
@<TRIPOS>SUBSTRUCTURE
       1 MOL1            1 RESIDUE      1      MOL     
@<SCITEGIC>MOL_PROPERTY
VM2 Rank
SciTegic.value.IntegerValue
77

@<SCITEGIC>MOL_PROPERTY
Conf_Id
SciTegic.value.IntegerValue
137

@<SCITEGIC>MOL_PROPERTY
Probability
SciTegic.value.DoubleValue
0.00

@<SCITEGIC>MOL_PROPERTY
Sum Probability
SciTegic.value.DoubleValue
99.99

@<SCITEGIC>MOL_PROPERTY
Delta G
SciTegic.value.DoubleValue
4.932

@<SCITEGIC>MOL_PROPERTY
G
SciTegic.value.DoubleValue
28.642

@<SCITEGIC>MOL_PROPERTY
E
SciTegic.value.DoubleValue
-4.460

@<SCITEGIC>MOL_PROPERTY
-TS
SciTegic.value.DoubleValue
33.102

@<SCITEGIC>MOL_PROPERTY
U+W
SciTegic.value.DoubleValue
-25.922

@<SCITEGIC>MOL_PROPERTY
U
SciTegic.value.DoubleValue
28.238

@<SCITEGIC>MOL_PROPERTY
W
SciTegic.value.DoubleValue
-54.160

@<SCITEGIC>MOL_PROPERTY
W(PB)
SciTegic.value.DoubleValue
-56.416

@<SCITEGIC>MOL_PROPERTY
W(SA)
SciTegic.value.DoubleValue
2.256

@<SCITEGIC>MOL_PROPERTY
Valence
SciTegic.value.DoubleValue
6.520

@<SCITEGIC>MOL_PROPERTY
Coulomb
SciTegic.value.DoubleValue
20.564

@<SCITEGIC>MOL_PROPERTY
VdW
SciTegic.value.DoubleValue
1.154

@<SCITEGIC>MOL_PROPERTY
VdW6
SciTegic.value.DoubleValue
-9.254

@<SCITEGIC>MOL_PROPERTY
VdW12
SciTegic.value.DoubleValue
10.408

@<SCITEGIC>MOL_PROPERTY
Bond
SciTegic.value.DoubleValue
0.327

@<SCITEGIC>MOL_PROPERTY
Angle
SciTegic.value.DoubleValue
2.699

@<SCITEGIC>MOL_PROPERTY
Pdih
SciTegic.value.DoubleValue
3.494

@<SCITEGIC>MOL_PROPERTY
Idih
SciTegic.value.DoubleValue
0.000

@<SCITEGIC>MOL_PROPERTY
Tether
SciTegic.value.DoubleValue
0.000

@<TRIPOS>MOLECULE
guest-s13_vm2.mol2 : vm2 ligand conformer 78
          26          25           1
SMALL
USER_CHARGES
 
@<TRIPOS>ATOM
       1    C1      20.793592   19.184713   19.961675 C.3        1 MOL1        -0.2398
       2    H1      20.015807   18.974089   19.216278 H          1 MOL1         0.0972
       3    H2      20.723121   20.242796   20.242938 H          1 MOL1         0.0972
       4    H3      21.768950   19.034765   19.481025 H          1 MOL1         0.0972
       5    C2      20.648702   18.261307   21.192094 C.3        1 MOL1        -0.1383
       6    H4      21.428849   18.504866   21.923930 H          1 MOL1         0.0961
       7    H5      20.839572   17.225191   20.879405 H          1 MOL1         0.0961
       8    C3      19.245091   18.329584   21.846889 C.3        1 MOL1        -0.1407
       9    H6      18.499509   18.013227   21.104382 H          1 MOL1         0.0961
      10    H7      19.177976   17.588560   22.652340 H          1 MOL1         0.0961
      11    C4      18.834387   19.726377   22.384344 C.3        1 MOL1        -0.1407
      12    H8      17.819364   19.661771   22.797827 H          1 MOL1         0.0961
      13    H9      18.746817   20.417407   21.535616 H          1 MOL1         0.0961
      14    C5      19.784020   20.367057   23.438599 C.3        1 MOL1        -0.1472
      15    H10     20.773411   20.534860   22.995060 H          1 MOL1         0.0961
      16    H11     19.398507   21.370432   23.662170 H          1 MOL1         0.0961
      17    C6      19.949369   19.625532   24.790373 C.3        1 MOL1         0.1190
      18    H12     20.468424   20.312312   25.466122 H          1 MOL1         0.0923
      19    C7      18.598263   19.279489   25.440072 C.3        1 MOL1        -0.2463
      20    H13     17.960950   20.169674   25.510246 H          1 MOL1         0.0972
      21    H14     18.748127   18.896638   26.456947 H          1 MOL1         0.0972
      22    H15     18.059356   18.513455   24.869824 H          1 MOL1         0.0972
      23    N1      20.834575   18.413941   24.699953 N.4        1 MOL1        -0.5974
      24    H16     21.770929   18.659523   24.366927 H          1 MOL1         0.3625
      25    H17     20.943420   17.962121   25.612405 H          1 MOL1         0.3625
      26    H18     20.447709   17.722294   24.054311 H          1 MOL1         0.3625
@<TRIPOS>BOND
    1     1     2    1
    2     1     3    1
    3     1     4    1
    4     1     5    1
    5     5     6    1
    6     5     7    1
    7     5     8    1
    8     8     9    1
    9     8    10    1
   10     8    11    1
   11    11    12    1
   12    11    13    1
   13    11    14    1
   14    14    15    1
   15    14    16    1
   16    14    17    1
   17    17    18    1
   18    17    19    1
   19    19    20    1
   20    19    21    1
   21    19    22    1
   22    17    23    1
   23    23    24    1
   24    23    25    1
   25    23    26    1
@<TRIPOS>SUBSTRUCTURE
       1 MOL1            1 RESIDUE      1      MOL     
@<SCITEGIC>MOL_PROPERTY
VM2 Rank
SciTegic.value.IntegerValue
78

@<SCITEGIC>MOL_PROPERTY
Conf_Id
SciTegic.value.IntegerValue
710

@<SCITEGIC>MOL_PROPERTY
Probability
SciTegic.value.DoubleValue
0.00

@<SCITEGIC>MOL_PROPERTY
Sum Probability
SciTegic.value.DoubleValue
99.99

@<SCITEGIC>MOL_PROPERTY
Delta G
SciTegic.value.DoubleValue
5.060

@<SCITEGIC>MOL_PROPERTY
G
SciTegic.value.DoubleValue
28.770

@<SCITEGIC>MOL_PROPERTY
E
SciTegic.value.DoubleValue
-5.031

@<SCITEGIC>MOL_PROPERTY
-TS
SciTegic.value.DoubleValue
33.801

@<SCITEGIC>MOL_PROPERTY
U+W
SciTegic.value.DoubleValue
-26.493

@<SCITEGIC>MOL_PROPERTY
U
SciTegic.value.DoubleValue
27.883

@<SCITEGIC>MOL_PROPERTY
W
SciTegic.value.DoubleValue
-54.375

@<SCITEGIC>MOL_PROPERTY
W(PB)
SciTegic.value.DoubleValue
-56.572

@<SCITEGIC>MOL_PROPERTY
W(SA)
SciTegic.value.DoubleValue
2.197

@<SCITEGIC>MOL_PROPERTY
Valence
SciTegic.value.DoubleValue
5.604

@<SCITEGIC>MOL_PROPERTY
Coulomb
SciTegic.value.DoubleValue
21.671

@<SCITEGIC>MOL_PROPERTY
VdW
SciTegic.value.DoubleValue
0.608

@<SCITEGIC>MOL_PROPERTY
VdW6
SciTegic.value.DoubleValue
-10.842

@<SCITEGIC>MOL_PROPERTY
VdW12
SciTegic.value.DoubleValue
11.450

@<SCITEGIC>MOL_PROPERTY
Bond
SciTegic.value.DoubleValue
0.377

@<SCITEGIC>MOL_PROPERTY
Angle
SciTegic.value.DoubleValue
2.942

@<SCITEGIC>MOL_PROPERTY
Pdih
SciTegic.value.DoubleValue
2.284

@<SCITEGIC>MOL_PROPERTY
Idih
SciTegic.value.DoubleValue
0.000

@<SCITEGIC>MOL_PROPERTY
Tether
SciTegic.value.DoubleValue
0.000

@<TRIPOS>MOLECULE
guest-s13_vm2.mol2 : vm2 ligand conformer 79
          26          25           1
SMALL
USER_CHARGES
 
@<TRIPOS>ATOM
       1    C1      19.836911   19.487754   19.836502 C.3        1 MOL1        -0.2398
       2    H1      20.618493   18.940788   19.293478 H          1 MOL1         0.0972
       3    H2      19.058764   19.767016   19.114482 H          1 MOL1         0.0972
       4    H3      20.273921   20.415318   20.226685 H          1 MOL1         0.0972
       5    C2      19.239202   18.623513   20.969531 C.3        1 MOL1        -0.1383
       6    H4      18.716336   17.766818   20.522063 H          1 MOL1         0.0961
       7    H5      18.472562   19.198803   21.503741 H          1 MOL1         0.0961
       8    C3      20.304327   18.088935   21.960882 C.3        1 MOL1        -0.1407
       9    H6      19.827633   17.418636   22.685573 H          1 MOL1         0.0961
      10    H7      21.009126   17.455012   21.405383 H          1 MOL1         0.0961
      11    C4      21.115339   19.178853   22.709515 C.3        1 MOL1        -0.1407
      12    H8      21.722728   19.724367   21.975196 H          1 MOL1         0.0961
      13    H9      21.846302   18.688573   23.365738 H          1 MOL1         0.0961
      14    C5      20.296555   20.220556   23.528128 C.3        1 MOL1        -0.1472
      15    H10     21.009913   20.968965   23.897052 H          1 MOL1         0.0961
      16    H11     19.622168   20.778101   22.866057 H          1 MOL1         0.0961
      17    C6      19.512246   19.703573   24.762866 C.3        1 MOL1         0.1190
      18    H12     19.368831   20.565533   25.421815 H          1 MOL1         0.0923
      19    C7      18.104464   19.189465   24.412729 C.3        1 MOL1        -0.2463
      20    H13     18.131755   18.264930   23.828830 H          1 MOL1         0.0972
      21    H14     17.545670   19.940967   23.841622 H          1 MOL1         0.0972
      22    H15     17.536453   18.984712   25.328437 H          1 MOL1         0.0972
      23    N1      20.278956   18.695350   25.573847 N.4        1 MOL1        -0.5974
      24    H16     21.182893   19.068770   25.876761 H          1 MOL1         0.3625
      25    H17     19.763406   18.419764   26.414410 H          1 MOL1         0.3625
      26    H18     20.461229   17.848174   25.030391 H          1 MOL1         0.3625
@<TRIPOS>BOND
    1     1     2    1
    2     1     3    1
    3     1     4    1
    4     1     5    1
    5     5     6    1
    6     5     7    1
    7     5     8    1
    8     8     9    1
    9     8    10    1
   10     8    11    1
   11    11    12    1
   12    11    13    1
   13    11    14    1
   14    14    15    1
   15    14    16    1
   16    14    17    1
   17    17    18    1
   18    17    19    1
   19    19    20    1
   20    19    21    1
   21    19    22    1
   22    17    23    1
   23    23    24    1
   24    23    25    1
   25    23    26    1
@<TRIPOS>SUBSTRUCTURE
       1 MOL1            1 RESIDUE      1      MOL     
@<SCITEGIC>MOL_PROPERTY
VM2 Rank
SciTegic.value.IntegerValue
79

@<SCITEGIC>MOL_PROPERTY
Conf_Id
SciTegic.value.IntegerValue
84

@<SCITEGIC>MOL_PROPERTY
Probability
SciTegic.value.DoubleValue
0.00

@<SCITEGIC>MOL_PROPERTY
Sum Probability
SciTegic.value.DoubleValue
99.99

@<SCITEGIC>MOL_PROPERTY
Delta G
SciTegic.value.DoubleValue
5.265

@<SCITEGIC>MOL_PROPERTY
G
SciTegic.value.DoubleValue
28.975

@<SCITEGIC>MOL_PROPERTY
E
SciTegic.value.DoubleValue
-4.848

@<SCITEGIC>MOL_PROPERTY
-TS
SciTegic.value.DoubleValue
33.822

@<SCITEGIC>MOL_PROPERTY
U+W
SciTegic.value.DoubleValue
-26.310

@<SCITEGIC>MOL_PROPERTY
U
SciTegic.value.DoubleValue
28.161

@<SCITEGIC>MOL_PROPERTY
W
SciTegic.value.DoubleValue
-54.471

@<SCITEGIC>MOL_PROPERTY
W(PB)
SciTegic.value.DoubleValue
-56.648

@<SCITEGIC>MOL_PROPERTY
W(SA)
SciTegic.value.DoubleValue
2.177

@<SCITEGIC>MOL_PROPERTY
Valence
SciTegic.value.DoubleValue
6.893

@<SCITEGIC>MOL_PROPERTY
Coulomb
SciTegic.value.DoubleValue
20.537

@<SCITEGIC>MOL_PROPERTY
VdW
SciTegic.value.DoubleValue
0.732

@<SCITEGIC>MOL_PROPERTY
VdW6
SciTegic.value.DoubleValue
-10.681

@<SCITEGIC>MOL_PROPERTY
VdW12
SciTegic.value.DoubleValue
11.413

@<SCITEGIC>MOL_PROPERTY
Bond
SciTegic.value.DoubleValue
0.380

@<SCITEGIC>MOL_PROPERTY
Angle
SciTegic.value.DoubleValue
3.328

@<SCITEGIC>MOL_PROPERTY
Pdih
SciTegic.value.DoubleValue
3.184

@<SCITEGIC>MOL_PROPERTY
Idih
SciTegic.value.DoubleValue
0.000

@<SCITEGIC>MOL_PROPERTY
Tether
SciTegic.value.DoubleValue
0.000

@<TRIPOS>MOLECULE
guest-s13_vm2.mol2 : vm2 ligand conformer 80
          26          25           1
SMALL
USER_CHARGES
 
@<TRIPOS>ATOM
       1    C1      21.403582   18.318386   20.671241 C.3        1 MOL1        -0.2398
       2    H1      20.975058   17.926353   19.739664 H          1 MOL1         0.0972
       3    H2      22.470725   18.505070   20.493791 H          1 MOL1         0.0972
       4    H3      21.329574   17.536379   21.435321 H          1 MOL1         0.0972
       5    C2      20.692375   19.622403   21.100704 C.3        1 MOL1        -0.1383
       6    H4      20.895527   20.390316   20.341159 H          1 MOL1         0.0961
       7    H5      21.138493   20.002998   22.025632 H          1 MOL1         0.0961
       8    C3      19.153955   19.475514   21.237152 C.3        1 MOL1        -0.1407
       9    H6      18.706999   20.464656   21.407064 H          1 MOL1         0.0961
      10    H7      18.762993   19.141201   20.266160 H          1 MOL1         0.0961
      11    C4      18.650543   18.489951   22.327815 C.3        1 MOL1        -0.1407
      12    H8      19.257941   17.577608   22.348610 H          1 MOL1         0.0961
      13    H9      17.648143   18.153728   22.028709 H          1 MOL1         0.0961
      14    C5      18.517058   19.094073   23.752465 C.3        1 MOL1        -0.1472
      15    H10     17.816042   19.938395   23.713844 H          1 MOL1         0.0961
      16    H11     18.050720   18.344449   24.405574 H          1 MOL1         0.0961
      17    C6      19.834741   19.569251   24.400989 C.3        1 MOL1         0.1190
      18    H12     20.249734   20.372646   23.787086 H          1 MOL1         0.0923
      19    C7      19.565687   20.138346   25.803072 C.3        1 MOL1        -0.2463
      20    H13     18.852438   20.970643   25.755304 H          1 MOL1         0.0972
      21    H14     20.491569   20.518895   26.251695 H          1 MOL1         0.0972
      22    H15     19.152428   19.372078   26.470853 H          1 MOL1         0.0972
      23    N1      20.870059   18.480076   24.460561 N.4        1 MOL1        -0.5974
      24    H16     21.084160   18.128507   23.523255 H          1 MOL1         0.3625
      25    H17     21.744302   18.815969   24.874735 H          1 MOL1         0.3625
      26    H18     20.546401   17.689505   25.024347 H          1 MOL1         0.3625
@<TRIPOS>BOND
    1     1     2    1
    2     1     3    1
    3     1     4    1
    4     1     5    1
    5     5     6    1
    6     5     7    1
    7     5     8    1
    8     8     9    1
    9     8    10    1
   10     8    11    1
   11    11    12    1
   12    11    13    1
   13    11    14    1
   14    14    15    1
   15    14    16    1
   16    14    17    1
   17    17    18    1
   18    17    19    1
   19    19    20    1
   20    19    21    1
   21    19    22    1
   22    17    23    1
   23    23    24    1
   24    23    25    1
   25    23    26    1
@<TRIPOS>SUBSTRUCTURE
       1 MOL1            1 RESIDUE      1      MOL     
@<SCITEGIC>MOL_PROPERTY
VM2 Rank
SciTegic.value.IntegerValue
80

@<SCITEGIC>MOL_PROPERTY
Conf_Id
SciTegic.value.IntegerValue
1040

@<SCITEGIC>MOL_PROPERTY
Probability
SciTegic.value.DoubleValue
0.00

@<SCITEGIC>MOL_PROPERTY
Sum Probability
SciTegic.value.DoubleValue
100.00

@<SCITEGIC>MOL_PROPERTY
Delta G
SciTegic.value.DoubleValue
5.340

@<SCITEGIC>MOL_PROPERTY
G
SciTegic.value.DoubleValue
29.050

@<SCITEGIC>MOL_PROPERTY
E
SciTegic.value.DoubleValue
-4.378

@<SCITEGIC>MOL_PROPERTY
-TS
SciTegic.value.DoubleValue
33.428

@<SCITEGIC>MOL_PROPERTY
U+W
SciTegic.value.DoubleValue
-25.840

@<SCITEGIC>MOL_PROPERTY
U
SciTegic.value.DoubleValue
27.602

@<SCITEGIC>MOL_PROPERTY
W
SciTegic.value.DoubleValue
-53.442

@<SCITEGIC>MOL_PROPERTY
W(PB)
SciTegic.value.DoubleValue
-55.679

@<SCITEGIC>MOL_PROPERTY
W(SA)
SciTegic.value.DoubleValue
2.236

@<SCITEGIC>MOL_PROPERTY
Valence
SciTegic.value.DoubleValue
6.052

@<SCITEGIC>MOL_PROPERTY
Coulomb
SciTegic.value.DoubleValue
21.011

@<SCITEGIC>MOL_PROPERTY
VdW
SciTegic.value.DoubleValue
0.539

@<SCITEGIC>MOL_PROPERTY
VdW6
SciTegic.value.DoubleValue
-9.880

@<SCITEGIC>MOL_PROPERTY
VdW12
SciTegic.value.DoubleValue
10.420

@<SCITEGIC>MOL_PROPERTY
Bond
SciTegic.value.DoubleValue
0.319

@<SCITEGIC>MOL_PROPERTY
Angle
SciTegic.value.DoubleValue
2.619

@<SCITEGIC>MOL_PROPERTY
Pdih
SciTegic.value.DoubleValue
3.114

@<SCITEGIC>MOL_PROPERTY
Idih
SciTegic.value.DoubleValue
0.000

@<SCITEGIC>MOL_PROPERTY
Tether
SciTegic.value.DoubleValue
0.000

@<TRIPOS>MOLECULE
guest-s13_vm2.mol2 : vm2 ligand conformer 81
          26          25           1
SMALL
USER_CHARGES
 
@<TRIPOS>ATOM
       1    C1      20.227606   20.176824   19.814453 C.3        1 MOL1        -0.2398
       2    H1      19.339254   20.799612   19.982197 H          1 MOL1         0.0972
       3    H2      21.059390   20.841445   19.547165 H          1 MOL1         0.0972
       4    H3      20.029537   19.522934   18.955136 H          1 MOL1         0.0972
       5    C2      20.571877   19.351779   21.072367 C.3        1 MOL1        -0.1383
       6    H4      20.807538   20.037146   21.894364 H          1 MOL1         0.0961
       7    H5      21.482964   18.767068   20.883194 H          1 MOL1         0.0961
       8    C3      19.416123   18.398121   21.461060 C.3        1 MOL1        -0.1407
       9    H6      18.479110   18.955621   21.592576 H          1 MOL1         0.0961
      10    H7      19.242679   17.717466   20.615962 H          1 MOL1         0.0961
      11    C4      19.709672   17.541968   22.719754 C.3        1 MOL1        -0.1407
      12    H8      20.778611   17.292134   22.767434 H          1 MOL1         0.0961
      13    H9      19.189082   16.581613   22.600542 H          1 MOL1         0.0961
      14    C5      19.244774   18.152921   24.069124 C.3        1 MOL1        -0.1472
      15    H10     18.160721   18.327511   24.048896 H          1 MOL1         0.0961
      16    H11     19.401207   17.386245   24.839503 H          1 MOL1         0.0961
      17    C6      19.990346   19.441578   24.490478 C.3        1 MOL1         0.1190
      18    H12     20.932903   19.487999   23.937516 H          1 MOL1         0.0923
      19    C7      19.163031   20.702538   24.179345 C.3        1 MOL1        -0.2463
      20    H13     18.235900   20.720924   24.765754 H          1 MOL1         0.0972
      21    H14     18.890403   20.754316   23.119632 H          1 MOL1         0.0972
      22    H15     19.733701   21.608047   24.419333 H          1 MOL1         0.0972
      23    N1      20.364572   19.422270   25.947420 N.4        1 MOL1        -0.5974
      24    H16     20.955256   18.617005   26.174253 H          1 MOL1         0.3625
      25    H17     20.883914   20.264313   26.211554 H          1 MOL1         0.3625
      26    H18     19.535789   19.374772   26.546194 H          1 MOL1         0.3625
@<TRIPOS>BOND
    1     1     2    1
    2     1     3    1
    3     1     4    1
    4     1     5    1
    5     5     6    1
    6     5     7    1
    7     5     8    1
    8     8     9    1
    9     8    10    1
   10     8    11    1
   11    11    12    1
   12    11    13    1
   13    11    14    1
   14    14    15    1
   15    14    16    1
   16    14    17    1
   17    17    18    1
   18    17    19    1
   19    19    20    1
   20    19    21    1
   21    19    22    1
   22    17    23    1
   23    23    24    1
   24    23    25    1
   25    23    26    1
@<TRIPOS>SUBSTRUCTURE
       1 MOL1            1 RESIDUE      1      MOL     
@<SCITEGIC>MOL_PROPERTY
VM2 Rank
SciTegic.value.IntegerValue
81

@<SCITEGIC>MOL_PROPERTY
Conf_Id
SciTegic.value.IntegerValue
95

@<SCITEGIC>MOL_PROPERTY
Probability
SciTegic.value.DoubleValue
0.00

@<SCITEGIC>MOL_PROPERTY
Sum Probability
SciTegic.value.DoubleValue
100.00

@<SCITEGIC>MOL_PROPERTY
Delta G
SciTegic.value.DoubleValue
5.956

@<SCITEGIC>MOL_PROPERTY
G
SciTegic.value.DoubleValue
29.666

@<SCITEGIC>MOL_PROPERTY
E
SciTegic.value.DoubleValue
-3.530

@<SCITEGIC>MOL_PROPERTY
-TS
SciTegic.value.DoubleValue
33.196

@<SCITEGIC>MOL_PROPERTY
U+W
SciTegic.value.DoubleValue
-24.992

@<SCITEGIC>MOL_PROPERTY
U
SciTegic.value.DoubleValue
29.319

@<SCITEGIC>MOL_PROPERTY
W
SciTegic.value.DoubleValue
-54.311

@<SCITEGIC>MOL_PROPERTY
W(PB)
SciTegic.value.DoubleValue
-56.566

@<SCITEGIC>MOL_PROPERTY
W(SA)
SciTegic.value.DoubleValue
2.254

@<SCITEGIC>MOL_PROPERTY
Valence
SciTegic.value.DoubleValue
8.263

@<SCITEGIC>MOL_PROPERTY
Coulomb
SciTegic.value.DoubleValue
20.281

@<SCITEGIC>MOL_PROPERTY
VdW
SciTegic.value.DoubleValue
0.775

@<SCITEGIC>MOL_PROPERTY
VdW6
SciTegic.value.DoubleValue
-9.226

@<SCITEGIC>MOL_PROPERTY
VdW12
SciTegic.value.DoubleValue
10.001

@<SCITEGIC>MOL_PROPERTY
Bond
SciTegic.value.DoubleValue
0.262

@<SCITEGIC>MOL_PROPERTY
Angle
SciTegic.value.DoubleValue
2.115

@<SCITEGIC>MOL_PROPERTY
Pdih
SciTegic.value.DoubleValue
5.886

@<SCITEGIC>MOL_PROPERTY
Idih
SciTegic.value.DoubleValue
0.000

@<SCITEGIC>MOL_PROPERTY
Tether
SciTegic.value.DoubleValue
0.000

@<TRIPOS>MOLECULE
guest-s13_vm2.mol2 : vm2 ligand conformer 82
          26          25           1
SMALL
USER_CHARGES
 
@<TRIPOS>ATOM
       1    C1      20.003979   20.464394   20.804795 C.3        1 MOL1        -0.2398
       2    H1      19.333425   20.695931   21.639340 H          1 MOL1         0.0972
       3    H2      20.693623   21.309564   20.682465 H          1 MOL1         0.0972
       4    H3      19.392945   20.399449   19.895109 H          1 MOL1         0.0972
       5    C2      20.788861   19.151187   21.031921 C.3        1 MOL1        -0.1383
       6    H4      21.500746   19.259768   21.861023 H          1 MOL1         0.0961
       7    H5      21.401022   18.966806   20.137925 H          1 MOL1         0.0961
       8    C3      19.869425   17.925393   21.261886 C.3        1 MOL1        -0.1407
       9    H6      18.904739   18.076253   20.758013 H          1 MOL1         0.0961
      10    H7      20.327714   17.061698   20.760380 H          1 MOL1         0.0961
      11    C4      19.637026   17.527284   22.744505 C.3        1 MOL1        -0.1407
      12    H8      20.591599   17.251115   23.210170 H          1 MOL1         0.0961
      13    H9      19.039277   16.605303   22.742574 H          1 MOL1         0.0961
      14    C5      18.884503   18.573415   23.610079 C.3        1 MOL1        -0.1472
      15    H10     18.086196   19.028708   23.009420 H          1 MOL1         0.0961
      16    H11     18.378852   18.050619   24.432810 H          1 MOL1         0.0961
      17    C6      19.783855   19.674827   24.217476 C.3        1 MOL1         0.1190
      18    H12     20.346944   20.152787   23.412549 H          1 MOL1         0.0923
      19    C7      18.922731   20.748873   24.900874 C.3        1 MOL1        -0.2463
      20    H13     18.224347   21.201898   24.186258 H          1 MOL1         0.0972
      21    H14     19.551621   21.551623   25.305161 H          1 MOL1         0.0972
      22    H15     18.338484   20.323540   25.726496 H          1 MOL1         0.0972
      23    N1      20.797620   19.122627   25.182464 N.4        1 MOL1        -0.5974
      24    H16     21.395648   19.862307   25.561398 H          1 MOL1         0.3625
      25    H17     20.344531   18.659934   25.974884 H          1 MOL1         0.3625
      26    H18     21.407936   18.435464   24.732615 H          1 MOL1         0.3625
@<TRIPOS>BOND
    1     1     2    1
    2     1     3    1
    3     1     4    1
    4     1     5    1
    5     5     6    1
    6     5     7    1
    7     5     8    1
    8     8     9    1
    9     8    10    1
   10     8    11    1
   11    11    12    1
   12    11    13    1
   13    11    14    1
   14    14    15    1
   15    14    16    1
   16    14    17    1
   17    17    18    1
   18    17    19    1
   19    19    20    1
   20    19    21    1
   21    19    22    1
   22    17    23    1
   23    23    24    1
   24    23    25    1
   25    23    26    1
@<TRIPOS>SUBSTRUCTURE
       1 MOL1            1 RESIDUE      1      MOL     
@<SCITEGIC>MOL_PROPERTY
VM2 Rank
SciTegic.value.IntegerValue
82

@<SCITEGIC>MOL_PROPERTY
Conf_Id
SciTegic.value.IntegerValue
370

@<SCITEGIC>MOL_PROPERTY
Probability
SciTegic.value.DoubleValue
0.00

@<SCITEGIC>MOL_PROPERTY
Sum Probability
SciTegic.value.DoubleValue
100.00

@<SCITEGIC>MOL_PROPERTY
Delta G
SciTegic.value.DoubleValue
5.963

@<SCITEGIC>MOL_PROPERTY
G
SciTegic.value.DoubleValue
29.673

@<SCITEGIC>MOL_PROPERTY
E
SciTegic.value.DoubleValue
-3.803

@<SCITEGIC>MOL_PROPERTY
-TS
SciTegic.value.DoubleValue
33.475

@<SCITEGIC>MOL_PROPERTY
U+W
SciTegic.value.DoubleValue
-25.264

@<SCITEGIC>MOL_PROPERTY
U
SciTegic.value.DoubleValue
29.018

@<SCITEGIC>MOL_PROPERTY
W
SciTegic.value.DoubleValue
-54.283

@<SCITEGIC>MOL_PROPERTY
W(PB)
SciTegic.value.DoubleValue
-56.490

@<SCITEGIC>MOL_PROPERTY
W(SA)
SciTegic.value.DoubleValue
2.207

@<SCITEGIC>MOL_PROPERTY
Valence
SciTegic.value.DoubleValue
7.755

@<SCITEGIC>MOL_PROPERTY
Coulomb
SciTegic.value.DoubleValue
20.779

@<SCITEGIC>MOL_PROPERTY
VdW
SciTegic.value.DoubleValue
0.484

@<SCITEGIC>MOL_PROPERTY
VdW6
SciTegic.value.DoubleValue
-10.173

@<SCITEGIC>MOL_PROPERTY
VdW12
SciTegic.value.DoubleValue
10.657

@<SCITEGIC>MOL_PROPERTY
Bond
SciTegic.value.DoubleValue
0.300

@<SCITEGIC>MOL_PROPERTY
Angle
SciTegic.value.DoubleValue
2.387

@<SCITEGIC>MOL_PROPERTY
Pdih
SciTegic.value.DoubleValue
5.068

@<SCITEGIC>MOL_PROPERTY
Idih
SciTegic.value.DoubleValue
0.000

@<SCITEGIC>MOL_PROPERTY
Tether
SciTegic.value.DoubleValue
0.000

@<TRIPOS>MOLECULE
guest-s13_vm2.mol2 : vm2 ligand conformer 83
          26          25           1
SMALL
USER_CHARGES
 
@<TRIPOS>ATOM
       1    C1      19.122662   18.451522   20.212869 C.3        1 MOL1        -0.2398
       2    H1      18.544569   19.332576   20.518120 H          1 MOL1         0.0972
       3    H2      18.867566   18.236525   19.167138 H          1 MOL1         0.0972
       4    H3      18.800090   17.595532   20.819472 H          1 MOL1         0.0972
       5    C2      20.640662   18.696558   20.358942 C.3        1 MOL1        -0.1383
       6    H4      20.928213   19.573996   19.762981 H          1 MOL1         0.0961
       7    H5      21.179249   17.843327   19.923413 H          1 MOL1         0.0961
       8    C3      21.113030   18.884266   21.823017 C.3        1 MOL1        -0.1407
       9    H6      20.903100   17.971646   22.393568 H          1 MOL1         0.0961
      10    H7      22.207196   18.984283   21.808487 H          1 MOL1         0.0961
      11    C4      20.520223   20.134561   22.528913 C.3        1 MOL1        -0.1407
      12    H8      20.304916   20.901561   21.772219 H          1 MOL1         0.0961
      13    H9      21.282371   20.581271   23.182437 H          1 MOL1         0.0961
      14    C5      19.238139   19.864077   23.362980 C.3        1 MOL1        -0.1472
      15    H10     18.625627   20.775311   23.345961 H          1 MOL1         0.0961
      16    H11     18.628109   19.080425   22.898053 H          1 MOL1         0.0961
      17    C6      19.517569   19.508323   24.841700 C.3        1 MOL1         0.1190
      18    H12     20.100772   20.323248   25.281466 H          1 MOL1         0.0923
      19    C7      18.197483   19.388933   25.620129 C.3        1 MOL1        -0.2463
      20    H13     17.625388   20.323409   25.563877 H          1 MOL1         0.0972
      21    H14     18.388974   19.179893   26.679852 H          1 MOL1         0.0972
      22    H15     17.572262   18.580997   25.219856 H          1 MOL1         0.0972
      23    N1      20.338231   18.259760   25.005450 N.4        1 MOL1        -0.5974
      24    H16     21.232392   18.339960   24.513569 H          1 MOL1         0.3625
      25    H17     20.543385   18.072953   25.991111 H          1 MOL1         0.3625
      26    H18     19.849699   17.441801   24.632301 H          1 MOL1         0.3625
@<TRIPOS>BOND
    1     1     2    1
    2     1     3    1
    3     1     4    1
    4     1     5    1
    5     5     6    1
    6     5     7    1
    7     5     8    1
    8     8     9    1
    9     8    10    1
   10     8    11    1
   11    11    12    1
   12    11    13    1
   13    11    14    1
   14    14    15    1
   15    14    16    1
   16    14    17    1
   17    17    18    1
   18    17    19    1
   19    19    20    1
   20    19    21    1
   21    19    22    1
   22    17    23    1
   23    23    24    1
   24    23    25    1
   25    23    26    1
@<TRIPOS>SUBSTRUCTURE
       1 MOL1            1 RESIDUE      1      MOL     
@<SCITEGIC>MOL_PROPERTY
VM2 Rank
SciTegic.value.IntegerValue
83

@<SCITEGIC>MOL_PROPERTY
Conf_Id
SciTegic.value.IntegerValue
476

@<SCITEGIC>MOL_PROPERTY
Probability
SciTegic.value.DoubleValue
0.00

@<SCITEGIC>MOL_PROPERTY
Sum Probability
SciTegic.value.DoubleValue
100.00

@<SCITEGIC>MOL_PROPERTY
Delta G
SciTegic.value.DoubleValue
6.147

@<SCITEGIC>MOL_PROPERTY
G
SciTegic.value.DoubleValue
29.857

@<SCITEGIC>MOL_PROPERTY
E
SciTegic.value.DoubleValue
-3.255

@<SCITEGIC>MOL_PROPERTY
-TS
SciTegic.value.DoubleValue
33.112

@<SCITEGIC>MOL_PROPERTY
U+W
SciTegic.value.DoubleValue
-24.717

@<SCITEGIC>MOL_PROPERTY
U
SciTegic.value.DoubleValue
29.339

@<SCITEGIC>MOL_PROPERTY
W
SciTegic.value.DoubleValue
-54.055

@<SCITEGIC>MOL_PROPERTY
W(PB)
SciTegic.value.DoubleValue
-56.307

@<SCITEGIC>MOL_PROPERTY
W(SA)
SciTegic.value.DoubleValue
2.251

@<SCITEGIC>MOL_PROPERTY
Valence
SciTegic.value.DoubleValue
7.537

@<SCITEGIC>MOL_PROPERTY
Coulomb
SciTegic.value.DoubleValue
20.790

@<SCITEGIC>MOL_PROPERTY
VdW
SciTegic.value.DoubleValue
1.011

@<SCITEGIC>MOL_PROPERTY
VdW6
SciTegic.value.DoubleValue
-9.264

@<SCITEGIC>MOL_PROPERTY
VdW12
SciTegic.value.DoubleValue
10.275

@<SCITEGIC>MOL_PROPERTY
Bond
SciTegic.value.DoubleValue
0.315

@<SCITEGIC>MOL_PROPERTY
Angle
SciTegic.value.DoubleValue
1.806

@<SCITEGIC>MOL_PROPERTY
Pdih
SciTegic.value.DoubleValue
5.416

@<SCITEGIC>MOL_PROPERTY
Idih
SciTegic.value.DoubleValue
0.000

@<SCITEGIC>MOL_PROPERTY
Tether
SciTegic.value.DoubleValue
0.000

@<TRIPOS>MOLECULE
guest-s13_vm2.mol2 : vm2 ligand conformer 84
          26          25           1
SMALL
USER_CHARGES
 
@<TRIPOS>ATOM
       1    C1      20.254480   17.768115   20.399587 C.3        1 MOL1        -0.2398
       2    H1      19.459096   17.195070   20.893284 H          1 MOL1         0.0972
       3    H2      20.470913   17.282500   19.439281 H          1 MOL1         0.0972
       4    H3      21.162070   17.704311   21.012654 H          1 MOL1         0.0972
       5    C2      19.827247   19.235822   20.178292 C.3        1 MOL1        -0.1383
       6    H4      18.995343   19.256472   19.460484 H          1 MOL1         0.0961
       7    H5      20.650890   19.788507   19.705142 H          1 MOL1         0.0961
       8    C3      19.383775   19.968805   21.469995 C.3        1 MOL1        -0.1407
       9    H6      19.041639   20.972447   21.182160 H          1 MOL1         0.0961
      10    H7      18.507009   19.465864   21.897099 H          1 MOL1         0.0961
      11    C4      20.504362   20.125442   22.533808 C.3        1 MOL1        -0.1407
      12    H8      20.388918   21.090580   23.046234 H          1 MOL1         0.0961
      13    H9      21.474954   20.185146   22.022364 H          1 MOL1         0.0961
      14    C5      20.550736   18.991970   23.595347 C.3        1 MOL1        -0.1472
      15    H10     20.168583   18.052378   23.178769 H          1 MOL1         0.0961
      16    H11     21.604426   18.806266   23.841668 H          1 MOL1         0.0961
      17    C6      19.810040   19.318949   24.914170 C.3        1 MOL1         0.1190
      18    H12     20.226942   20.247140   25.316999 H          1 MOL1         0.0923
      19    C7      18.298424   19.519299   24.710948 C.3        1 MOL1        -0.2463
      20    H13     17.839141   18.636172   24.249797 H          1 MOL1         0.0972
      21    H14     18.097668   20.388131   24.073315 H          1 MOL1         0.0972
      22    H15     17.799777   19.700022   25.671111 H          1 MOL1         0.0972
      23    N1      20.058936   18.259598   25.951854 N.4        1 MOL1        -0.5974
      24    H16     19.608419   18.494067   26.840933 H          1 MOL1         0.3625
      25    H17     19.693142   17.351147   25.654726 H          1 MOL1         0.3625
      26    H18     21.058778   18.142507   26.139419 H          1 MOL1         0.3625
@<TRIPOS>BOND
    1     1     2    1
    2     1     3    1
    3     1     4    1
    4     1     5    1
    5     5     6    1
    6     5     7    1
    7     5     8    1
    8     8     9    1
    9     8    10    1
   10     8    11    1
   11    11    12    1
   12    11    13    1
   13    11    14    1
   14    14    15    1
   15    14    16    1
   16    14    17    1
   17    17    18    1
   18    17    19    1
   19    19    20    1
   20    19    21    1
   21    19    22    1
   22    17    23    1
   23    23    24    1
   24    23    25    1
   25    23    26    1
@<TRIPOS>SUBSTRUCTURE
       1 MOL1            1 RESIDUE      1      MOL     
@<SCITEGIC>MOL_PROPERTY
VM2 Rank
SciTegic.value.IntegerValue
84

@<SCITEGIC>MOL_PROPERTY
Conf_Id
SciTegic.value.IntegerValue
551

@<SCITEGIC>MOL_PROPERTY
Probability
SciTegic.value.DoubleValue
0.00

@<SCITEGIC>MOL_PROPERTY
Sum Probability
SciTegic.value.DoubleValue
100.00

@<SCITEGIC>MOL_PROPERTY
Delta G
SciTegic.value.DoubleValue
6.163

@<SCITEGIC>MOL_PROPERTY
G
SciTegic.value.DoubleValue
29.872

@<SCITEGIC>MOL_PROPERTY
E
SciTegic.value.DoubleValue
-3.428

@<SCITEGIC>MOL_PROPERTY
-TS
SciTegic.value.DoubleValue
33.301

@<SCITEGIC>MOL_PROPERTY
U+W
SciTegic.value.DoubleValue
-24.890

@<SCITEGIC>MOL_PROPERTY
U
SciTegic.value.DoubleValue
29.463

@<SCITEGIC>MOL_PROPERTY
W
SciTegic.value.DoubleValue
-54.353

@<SCITEGIC>MOL_PROPERTY
W(PB)
SciTegic.value.DoubleValue
-56.569

@<SCITEGIC>MOL_PROPERTY
W(SA)
SciTegic.value.DoubleValue
2.216

@<SCITEGIC>MOL_PROPERTY
Valence
SciTegic.value.DoubleValue
8.327

@<SCITEGIC>MOL_PROPERTY
Coulomb
SciTegic.value.DoubleValue
20.082

@<SCITEGIC>MOL_PROPERTY
VdW
SciTegic.value.DoubleValue
1.055

@<SCITEGIC>MOL_PROPERTY
VdW6
SciTegic.value.DoubleValue
-9.536

@<SCITEGIC>MOL_PROPERTY
VdW12
SciTegic.value.DoubleValue
10.591

@<SCITEGIC>MOL_PROPERTY
Bond
SciTegic.value.DoubleValue
0.319

@<SCITEGIC>MOL_PROPERTY
Angle
SciTegic.value.DoubleValue
2.120

@<SCITEGIC>MOL_PROPERTY
Pdih
SciTegic.value.DoubleValue
5.888

@<SCITEGIC>MOL_PROPERTY
Idih
SciTegic.value.DoubleValue
0.000

@<SCITEGIC>MOL_PROPERTY
Tether
SciTegic.value.DoubleValue
0.000

@<TRIPOS>MOLECULE
guest-s13_vm2.mol2 : vm2 ligand conformer 85
          26          25           1
SMALL
USER_CHARGES
 
@<TRIPOS>ATOM
       1    C1      20.167879   19.995782   20.063021 C.3        1 MOL1        -0.2398
       2    H1      21.048645   20.316608   20.633071 H          1 MOL1         0.0972
       3    H2      20.372244   20.192742   19.002695 H          1 MOL1         0.0972
       4    H3      19.313911   20.617637   20.360987 H          1 MOL1         0.0972
       5    C2      19.869120   18.496916   20.285958 C.3        1 MOL1        -0.1383
       6    H4      20.749352   17.903093   20.002616 H          1 MOL1         0.0961
       7    H5      19.064163   18.192440   19.602534 H          1 MOL1         0.0961
       8    C3      19.447528   18.142711   21.734857 C.3        1 MOL1        -0.1407
       9    H6      18.519047   18.669143   21.988278 H          1 MOL1         0.0961
      10    H7      19.198426   17.072806   21.756014 H          1 MOL1         0.0961
      11    C4      20.543241   18.405983   22.803535 C.3        1 MOL1        -0.1407
      12    H8      21.530176   18.292464   22.334356 H          1 MOL1         0.0961
      13    H9      20.497490   17.618282   23.566287 H          1 MOL1         0.0961
      14    C5      20.459949   19.801589   23.487558 C.3        1 MOL1        -0.1472
      15    H10     21.481448   20.148589   23.690870 H          1 MOL1         0.0961
      16    H11     20.034145   20.539538   22.797516 H          1 MOL1         0.0961
      17    C6      19.674026   19.851805   24.821421 C.3        1 MOL1         0.1190
      18    H12     19.700092   20.888206   25.172091 H          1 MOL1         0.0923
      19    C7      18.197165   19.457428   24.655224 C.3        1 MOL1        -0.2463
      20    H13     17.649914   19.614177   25.592793 H          1 MOL1         0.0972
      21    H14     18.090980   18.402010   24.377097 H          1 MOL1         0.0972
      22    H15     17.715287   20.070469   23.883712 H          1 MOL1         0.0972
      23    N1      20.329091   19.035784   25.902427 N.4        1 MOL1        -0.5974
      24    H16     21.298906   19.325812   26.056492 H          1 MOL1         0.3625
      25    H17     19.836088   19.132510   26.794571 H          1 MOL1         0.3625
      26    H18     20.339463   18.041232   25.664246 H          1 MOL1         0.3625
@<TRIPOS>BOND
    1     1     2    1
    2     1     3    1
    3     1     4    1
    4     1     5    1
    5     5     6    1
    6     5     7    1
    7     5     8    1
    8     8     9    1
    9     8    10    1
   10     8    11    1
   11    11    12    1
   12    11    13    1
   13    11    14    1
   14    14    15    1
   15    14    16    1
   16    14    17    1
   17    17    18    1
   18    17    19    1
   19    19    20    1
   20    19    21    1
   21    19    22    1
   22    17    23    1
   23    23    24    1
   24    23    25    1
   25    23    26    1
@<TRIPOS>SUBSTRUCTURE
       1 MOL1            1 RESIDUE      1      MOL     
@<SCITEGIC>MOL_PROPERTY
VM2 Rank
SciTegic.value.IntegerValue
85

@<SCITEGIC>MOL_PROPERTY
Conf_Id
SciTegic.value.IntegerValue
235

@<SCITEGIC>MOL_PROPERTY
Probability
SciTegic.value.DoubleValue
0.00

@<SCITEGIC>MOL_PROPERTY
Sum Probability
SciTegic.value.DoubleValue
100.00

@<SCITEGIC>MOL_PROPERTY
Delta G
SciTegic.value.DoubleValue
6.344

@<SCITEGIC>MOL_PROPERTY
G
SciTegic.value.DoubleValue
30.054

@<SCITEGIC>MOL_PROPERTY
E
SciTegic.value.DoubleValue
-3.334

@<SCITEGIC>MOL_PROPERTY
-TS
SciTegic.value.DoubleValue
33.388

@<SCITEGIC>MOL_PROPERTY
U+W
SciTegic.value.DoubleValue
-24.795

@<SCITEGIC>MOL_PROPERTY
U
SciTegic.value.DoubleValue
29.609

@<SCITEGIC>MOL_PROPERTY
W
SciTegic.value.DoubleValue
-54.405

@<SCITEGIC>MOL_PROPERTY
W(PB)
SciTegic.value.DoubleValue
-56.600

@<SCITEGIC>MOL_PROPERTY
W(SA)
SciTegic.value.DoubleValue
2.195

@<SCITEGIC>MOL_PROPERTY
Valence
SciTegic.value.DoubleValue
8.402

@<SCITEGIC>MOL_PROPERTY
Coulomb
SciTegic.value.DoubleValue
20.135

@<SCITEGIC>MOL_PROPERTY
VdW
SciTegic.value.DoubleValue
1.073

@<SCITEGIC>MOL_PROPERTY
VdW6
SciTegic.value.DoubleValue
-9.965

@<SCITEGIC>MOL_PROPERTY
VdW12
SciTegic.value.DoubleValue
11.038

@<SCITEGIC>MOL_PROPERTY
Bond
SciTegic.value.DoubleValue
0.358

@<SCITEGIC>MOL_PROPERTY
Angle
SciTegic.value.DoubleValue
2.261

@<SCITEGIC>MOL_PROPERTY
Pdih
SciTegic.value.DoubleValue
5.783

@<SCITEGIC>MOL_PROPERTY
Idih
SciTegic.value.DoubleValue
0.000

@<SCITEGIC>MOL_PROPERTY
Tether
SciTegic.value.DoubleValue
0.000

@<TRIPOS>MOLECULE
guest-s13_vm2.mol2 : vm2 ligand conformer 86
          26          25           1
SMALL
USER_CHARGES
 
@<TRIPOS>ATOM
       1    C1      21.506387   18.580343   21.144521 C.3        1 MOL1        -0.2398
       2    H1      21.398928   18.045215   22.094123 H          1 MOL1         0.0972
       3    H2      21.456163   17.838060   20.337287 H          1 MOL1         0.0972
       4    H3      22.507479   19.029974   21.121349 H          1 MOL1         0.0972
       5    C2      20.418706   19.664043   20.959528 C.3        1 MOL1        -0.1383
       6    H4      20.557206   20.114263   19.966512 H          1 MOL1         0.0961
       7    H5      20.556408   20.483278   21.677954 H          1 MOL1         0.0961
       8    C3      18.979342   19.098216   21.050331 C.3        1 MOL1        -0.1407
       9    H6      18.367857   19.609646   20.294005 H          1 MOL1         0.0961
      10    H7      18.969938   18.037640   20.763317 H          1 MOL1         0.0961
      11    C4      18.270374   19.283937   22.419022 C.3        1 MOL1        -0.1407
      12    H8      17.242028   18.914920   22.302385 H          1 MOL1         0.0961
      13    H9      18.166408   20.352586   22.642258 H          1 MOL1         0.0961
      14    C5      18.906305   18.523848   23.615043 C.3        1 MOL1        -0.1472
      15    H10     18.132066   18.357000   24.375668 H          1 MOL1         0.0961
      16    H11     19.208031   17.524751   23.274699 H          1 MOL1         0.0961
      17    C6      20.107696   19.226143   24.293656 C.3        1 MOL1         0.1190
      18    H12     20.841340   19.488407   23.528127 H          1 MOL1         0.0923
      19    C7      19.691215   20.514861   25.025756 C.3        1 MOL1        -0.2463
      20    H13     19.309469   21.268478   24.328178 H          1 MOL1         0.0972
      21    H14     20.550738   20.959674   25.542158 H          1 MOL1         0.0972
      22    H15     18.913806   20.313551   25.773243 H          1 MOL1         0.0972
      23    N1      20.807974   18.296609   25.246144 N.4        1 MOL1        -0.5974
      24    H16     21.132732   17.447040   24.776064 H          1 MOL1         0.3625
      25    H17     21.626448   18.742391   25.670225 H          1 MOL1         0.3625
      26    H18     20.189314   18.008188   26.008813 H          1 MOL1         0.3625
@<TRIPOS>BOND
    1     1     2    1
    2     1     3    1
    3     1     4    1
    4     1     5    1
    5     5     6    1
    6     5     7    1
    7     5     8    1
    8     8     9    1
    9     8    10    1
   10     8    11    1
   11    11    12    1
   12    11    13    1
   13    11    14    1
   14    14    15    1
   15    14    16    1
   16    14    17    1
   17    17    18    1
   18    17    19    1
   19    19    20    1
   20    19    21    1
   21    19    22    1
   22    17    23    1
   23    23    24    1
   24    23    25    1
   25    23    26    1
@<TRIPOS>SUBSTRUCTURE
       1 MOL1            1 RESIDUE      1      MOL     
@<SCITEGIC>MOL_PROPERTY
VM2 Rank
SciTegic.value.IntegerValue
86

@<SCITEGIC>MOL_PROPERTY
Conf_Id
SciTegic.value.IntegerValue
390

@<SCITEGIC>MOL_PROPERTY
Probability
SciTegic.value.DoubleValue
0.00

@<SCITEGIC>MOL_PROPERTY
Sum Probability
SciTegic.value.DoubleValue
100.00

@<SCITEGIC>MOL_PROPERTY
Delta G
SciTegic.value.DoubleValue
6.578

@<SCITEGIC>MOL_PROPERTY
G
SciTegic.value.DoubleValue
30.288

@<SCITEGIC>MOL_PROPERTY
E
SciTegic.value.DoubleValue
-3.094

@<SCITEGIC>MOL_PROPERTY
-TS
SciTegic.value.DoubleValue
33.382

@<SCITEGIC>MOL_PROPERTY
U+W
SciTegic.value.DoubleValue
-24.556

@<SCITEGIC>MOL_PROPERTY
U
SciTegic.value.DoubleValue
29.944

@<SCITEGIC>MOL_PROPERTY
W
SciTegic.value.DoubleValue
-54.500

@<SCITEGIC>MOL_PROPERTY
W(PB)
SciTegic.value.DoubleValue
-56.695

@<SCITEGIC>MOL_PROPERTY
W(SA)
SciTegic.value.DoubleValue
2.195

@<SCITEGIC>MOL_PROPERTY
Valence
SciTegic.value.DoubleValue
8.447

@<SCITEGIC>MOL_PROPERTY
Coulomb
SciTegic.value.DoubleValue
20.858

@<SCITEGIC>MOL_PROPERTY
VdW
SciTegic.value.DoubleValue
0.639

@<SCITEGIC>MOL_PROPERTY
VdW6
SciTegic.value.DoubleValue
-10.247

@<SCITEGIC>MOL_PROPERTY
VdW12
SciTegic.value.DoubleValue
10.886

@<SCITEGIC>MOL_PROPERTY
Bond
SciTegic.value.DoubleValue
0.318

@<SCITEGIC>MOL_PROPERTY
Angle
SciTegic.value.DoubleValue
2.793

@<SCITEGIC>MOL_PROPERTY
Pdih
SciTegic.value.DoubleValue
5.336

@<SCITEGIC>MOL_PROPERTY
Idih
SciTegic.value.DoubleValue
0.000

@<SCITEGIC>MOL_PROPERTY
Tether
SciTegic.value.DoubleValue
0.000

@<TRIPOS>MOLECULE
guest-s13_vm2.mol2 : vm2 ligand conformer 87
          26          25           1
SMALL
USER_CHARGES
 
@<TRIPOS>ATOM
       1    C1      21.442642   18.096901   20.336159 C.3        1 MOL1        -0.2398
       2    H1      20.937243   17.884883   19.384831 H          1 MOL1         0.0972
       3    H2      22.484287   18.360835   20.111403 H          1 MOL1         0.0972
       4    H3      21.450045   17.174366   20.930868 H          1 MOL1         0.0972
       5    C2      20.740826   19.245178   21.091219 C.3        1 MOL1        -0.1383
       6    H4      20.783403   20.157917   20.480239 H          1 MOL1         0.0961
       7    H5      21.295846   19.472310   22.009273 H          1 MOL1         0.0961
       8    C3      19.261385   18.907675   21.398775 C.3        1 MOL1        -0.1407
       9    H6      18.721971   18.860644   20.442407 H          1 MOL1         0.0961
      10    H7      19.163510   17.906791   21.839501 H          1 MOL1         0.0961
      11    C4      18.571520   19.962341   22.301273 C.3        1 MOL1        -0.1407
      12    H8      17.536349   20.080648   21.952057 H          1 MOL1         0.0961
      13    H9      19.041102   20.945870   22.160905 H          1 MOL1         0.0961
      14    C5      18.511794   19.615769   23.814504 C.3        1 MOL1        -0.1472
      15    H10     17.934784   20.411919   24.303690 H          1 MOL1         0.0961
      16    H11     17.933585   18.694586   23.965436 H          1 MOL1         0.0961
      17    C6      19.881377   19.493108   24.522623 C.3        1 MOL1         0.1190
      18    H12     20.538879   20.280752   24.142156 H          1 MOL1         0.0923
      19    C7      19.721303   19.690199   26.039101 C.3        1 MOL1        -0.2463
      20    H13     19.303375   20.679663   26.262813 H          1 MOL1         0.0972
      21    H14     20.692166   19.619358   26.544915 H          1 MOL1         0.0972
      22    H15     19.055040   18.932132   26.469708 H          1 MOL1         0.0972
      23    N1      20.557153   18.176829   24.250347 N.4        1 MOL1        -0.5974
      24    H16     20.676934   18.028642   23.243746 H          1 MOL1         0.3625
      25    H17     21.482822   18.133466   24.686394 H          1 MOL1         0.3625
      26    H18     20.008341   17.394624   24.617268 H          1 MOL1         0.3625
@<TRIPOS>BOND
    1     1     2    1
    2     1     3    1
    3     1     4    1
    4     1     5    1
    5     5     6    1
    6     5     7    1
    7     5     8    1
    8     8     9    1
    9     8    10    1
   10     8    11    1
   11    11    12    1
   12    11    13    1
   13    11    14    1
   14    14    15    1
   15    14    16    1
   16    14    17    1
   17    17    18    1
   18    17    19    1
   19    19    20    1
   20    19    21    1
   21    19    22    1
   22    17    23    1
   23    23    24    1
   24    23    25    1
   25    23    26    1
@<TRIPOS>SUBSTRUCTURE
       1 MOL1            1 RESIDUE      1      MOL     
@<SCITEGIC>MOL_PROPERTY
VM2 Rank
SciTegic.value.IntegerValue
87

@<SCITEGIC>MOL_PROPERTY
Conf_Id
SciTegic.value.IntegerValue
1068

@<SCITEGIC>MOL_PROPERTY
Probability
SciTegic.value.DoubleValue
0.00

@<SCITEGIC>MOL_PROPERTY
Sum Probability
SciTegic.value.DoubleValue
100.00

@<SCITEGIC>MOL_PROPERTY
Delta G
SciTegic.value.DoubleValue
7.071

@<SCITEGIC>MOL_PROPERTY
G
SciTegic.value.DoubleValue
30.781

@<SCITEGIC>MOL_PROPERTY
E
SciTegic.value.DoubleValue
-2.480

@<SCITEGIC>MOL_PROPERTY
-TS
SciTegic.value.DoubleValue
33.261

@<SCITEGIC>MOL_PROPERTY
U+W
SciTegic.value.DoubleValue
-23.942

@<SCITEGIC>MOL_PROPERTY
U
SciTegic.value.DoubleValue
28.935

@<SCITEGIC>MOL_PROPERTY
W
SciTegic.value.DoubleValue
-52.876

@<SCITEGIC>MOL_PROPERTY
W(PB)
SciTegic.value.DoubleValue
-55.147

@<SCITEGIC>MOL_PROPERTY
W(SA)
SciTegic.value.DoubleValue
2.271

@<SCITEGIC>MOL_PROPERTY
Valence
SciTegic.value.DoubleValue
7.029

@<SCITEGIC>MOL_PROPERTY
Coulomb
SciTegic.value.DoubleValue
21.124

@<SCITEGIC>MOL_PROPERTY
VdW
SciTegic.value.DoubleValue
0.781

@<SCITEGIC>MOL_PROPERTY
VdW6
SciTegic.value.DoubleValue
-9.551

@<SCITEGIC>MOL_PROPERTY
VdW12
SciTegic.value.DoubleValue
10.332

@<SCITEGIC>MOL_PROPERTY
Bond
SciTegic.value.DoubleValue
0.264

@<SCITEGIC>MOL_PROPERTY
Angle
SciTegic.value.DoubleValue
2.108

@<SCITEGIC>MOL_PROPERTY
Pdih
SciTegic.value.DoubleValue
4.657

@<SCITEGIC>MOL_PROPERTY
Idih
SciTegic.value.DoubleValue
0.000

@<SCITEGIC>MOL_PROPERTY
Tether
SciTegic.value.DoubleValue
0.000

@<TRIPOS>MOLECULE
guest-s13_vm2.mol2 : vm2 ligand conformer 88
          26          25           1
SMALL
USER_CHARGES
 
@<TRIPOS>ATOM
       1    C1      19.475506   17.670408   20.635230 C.3        1 MOL1        -0.2398
       2    H1      19.898110   16.892890   19.985790 H          1 MOL1         0.0972
       3    H2      19.489004   17.289781   21.662648 H          1 MOL1         0.0972
       4    H3      18.427605   17.815899   20.342222 H          1 MOL1         0.0972
       5    C2      20.275301   18.986309   20.495571 C.3        1 MOL1        -0.1383
       6    H4      20.234914   19.300360   19.443101 H          1 MOL1         0.0961
       7    H5      21.337378   18.809717   20.715480 H          1 MOL1         0.0961
       8    C3      19.719362   20.133219   21.379414 C.3        1 MOL1        -0.1407
       9    H6      19.684471   21.044844   20.766955 H          1 MOL1         0.0961
      10    H7      18.676558   19.931809   21.649011 H          1 MOL1         0.0961
      11    C4      20.577009   20.453809   22.635085 C.3        1 MOL1        -0.1407
      12    H8      20.178576   21.348871   23.132394 H          1 MOL1         0.0961
      13    H9      21.580496   20.736880   22.288151 H          1 MOL1         0.0961
      14    C5      20.729725   19.310631   23.676280 C.3        1 MOL1        -0.1472
      15    H10     20.776877   18.334912   23.181724 H          1 MOL1         0.0961
      16    H11     21.709087   19.437524   24.156164 H          1 MOL1         0.0961
      17    C6      19.672127   19.293086   24.806949 C.3        1 MOL1         0.1190
      18    H12     19.717069   20.253937   25.328810 H          1 MOL1         0.0923
      19    C7      18.236235   19.097143   24.293638 C.3        1 MOL1        -0.2463
      20    H13     18.160531   18.218537   23.641621 H          1 MOL1         0.0972
      21    H14     17.896421   19.978386   23.738794 H          1 MOL1         0.0972
      22    H15     17.540839   18.960820   25.130948 H          1 MOL1         0.0972
      23    N1      20.002737   18.243395   25.831834 N.4        1 MOL1        -0.5974
      24    H16     20.937279   18.382467   26.226635 H          1 MOL1         0.3625
      25    H17     19.338452   18.259297   26.610843 H          1 MOL1         0.3625
      26    H18     19.976148   17.303767   25.427209 H          1 MOL1         0.3625
@<TRIPOS>BOND
    1     1     2    1
    2     1     3    1
    3     1     4    1
    4     1     5    1
    5     5     6    1
    6     5     7    1
    7     5     8    1
    8     8     9    1
    9     8    10    1
   10     8    11    1
   11    11    12    1
   12    11    13    1
   13    11    14    1
   14    14    15    1
   15    14    16    1
   16    14    17    1
   17    17    18    1
   18    17    19    1
   19    19    20    1
   20    19    21    1
   21    19    22    1
   22    17    23    1
   23    23    24    1
   24    23    25    1
   25    23    26    1
@<TRIPOS>SUBSTRUCTURE
       1 MOL1            1 RESIDUE      1      MOL     
@<SCITEGIC>MOL_PROPERTY
VM2 Rank
SciTegic.value.IntegerValue
88

@<SCITEGIC>MOL_PROPERTY
Conf_Id
SciTegic.value.IntegerValue
837

@<SCITEGIC>MOL_PROPERTY
Probability
SciTegic.value.DoubleValue
0.00

@<SCITEGIC>MOL_PROPERTY
Sum Probability
SciTegic.value.DoubleValue
100.00

@<SCITEGIC>MOL_PROPERTY
Delta G
SciTegic.value.DoubleValue
7.229

@<SCITEGIC>MOL_PROPERTY
G
SciTegic.value.DoubleValue
30.939

@<SCITEGIC>MOL_PROPERTY
E
SciTegic.value.DoubleValue
-2.278

@<SCITEGIC>MOL_PROPERTY
-TS
SciTegic.value.DoubleValue
33.217

@<SCITEGIC>MOL_PROPERTY
U+W
SciTegic.value.DoubleValue
-23.739

@<SCITEGIC>MOL_PROPERTY
U
SciTegic.value.DoubleValue
30.750

@<SCITEGIC>MOL_PROPERTY
W
SciTegic.value.DoubleValue
-54.489

@<SCITEGIC>MOL_PROPERTY
W(PB)
SciTegic.value.DoubleValue
-56.701

@<SCITEGIC>MOL_PROPERTY
W(SA)
SciTegic.value.DoubleValue
2.212

@<SCITEGIC>MOL_PROPERTY
Valence
SciTegic.value.DoubleValue
9.482

@<SCITEGIC>MOL_PROPERTY
Coulomb
SciTegic.value.DoubleValue
20.298

@<SCITEGIC>MOL_PROPERTY
VdW
SciTegic.value.DoubleValue
0.970

@<SCITEGIC>MOL_PROPERTY
VdW6
SciTegic.value.DoubleValue
-9.658

@<SCITEGIC>MOL_PROPERTY
VdW12
SciTegic.value.DoubleValue
10.628

@<SCITEGIC>MOL_PROPERTY
Bond
SciTegic.value.DoubleValue
0.353

@<SCITEGIC>MOL_PROPERTY
Angle
SciTegic.value.DoubleValue
2.952

@<SCITEGIC>MOL_PROPERTY
Pdih
SciTegic.value.DoubleValue
6.177

@<SCITEGIC>MOL_PROPERTY
Idih
SciTegic.value.DoubleValue
0.000

@<SCITEGIC>MOL_PROPERTY
Tether
SciTegic.value.DoubleValue
0.000

@<TRIPOS>MOLECULE
guest-s13_vm2.mol2 : vm2 ligand conformer 89
          26          25           1
SMALL
USER_CHARGES
 
@<TRIPOS>ATOM
       1    C1      20.917540   19.575487   19.955614 C.3        1 MOL1        -0.2398
       2    H1      20.246673   20.435758   20.068998 H          1 MOL1         0.0972
       3    H2      21.909909   19.961978   19.689538 H          1 MOL1         0.0972
       4    H3      20.557669   18.971053   19.112879 H          1 MOL1         0.0972
       5    C2      20.993648   18.734267   21.250226 C.3        1 MOL1        -0.1383
       6    H4      21.380947   19.361855   22.062105 H          1 MOL1         0.0961
       7    H5      21.727543   17.930045   21.099737 H          1 MOL1         0.0961
       8    C3      19.631240   18.102598   21.637709 C.3        1 MOL1        -0.1407
       9    H6      19.206207   17.630993   20.740714 H          1 MOL1         0.0961
      10    H7      19.779733   17.278843   22.348221 H          1 MOL1         0.0961
      11    C4      18.597509   19.110427   22.207961 C.3        1 MOL1        -0.1407
      12    H8      17.605495   18.822334   21.833465 H          1 MOL1         0.0961
      13    H9      18.777159   20.116942   21.809077 H          1 MOL1         0.0961
      14    C5      18.505194   19.174452   23.757000 C.3        1 MOL1        -0.1472
      15    H10     17.680094   19.856969   24.000880 H          1 MOL1         0.0961
      16    H11     18.209056   18.195906   24.157494 H          1 MOL1         0.0961
      17    C6      19.782955   19.668885   24.474215 C.3        1 MOL1         0.1190
      18    H12     20.224107   20.473756   23.878307 H          1 MOL1         0.0923
      19    C7      19.436918   20.231332   25.862817 C.3        1 MOL1        -0.2463
      20    H13     18.739764   21.074511   25.780456 H          1 MOL1         0.0972
      21    H14     20.338534   20.596271   26.370116 H          1 MOL1         0.0972
      22    H15     18.973745   19.465149   26.497191 H          1 MOL1         0.0972
      23    N1      20.822996   18.590553   24.608458 N.4        1 MOL1        -0.5974
      24    H16     21.681468   18.948793   25.036785 H          1 MOL1         0.3625
      25    H17     20.486704   17.821151   25.193710 H          1 MOL1         0.3625
      26    H18     21.067668   18.200989   23.694052 H          1 MOL1         0.3625
@<TRIPOS>BOND
    1     1     2    1
    2     1     3    1
    3     1     4    1
    4     1     5    1
    5     5     6    1
    6     5     7    1
    7     5     8    1
    8     8     9    1
    9     8    10    1
   10     8    11    1
   11    11    12    1
   12    11    13    1
   13    11    14    1
   14    14    15    1
   15    14    16    1
   16    14    17    1
   17    17    18    1
   18    17    19    1
   19    19    20    1
   20    19    21    1
   21    19    22    1
   22    17    23    1
   23    23    24    1
   24    23    25    1
   25    23    26    1
@<TRIPOS>SUBSTRUCTURE
       1 MOL1            1 RESIDUE      1      MOL     
@<SCITEGIC>MOL_PROPERTY
VM2 Rank
SciTegic.value.IntegerValue
89

@<SCITEGIC>MOL_PROPERTY
Conf_Id
SciTegic.value.IntegerValue
1061

@<SCITEGIC>MOL_PROPERTY
Probability
SciTegic.value.DoubleValue
0.00

@<SCITEGIC>MOL_PROPERTY
Sum Probability
SciTegic.value.DoubleValue
100.00

@<SCITEGIC>MOL_PROPERTY
Delta G
SciTegic.value.DoubleValue
7.301

@<SCITEGIC>MOL_PROPERTY
G
SciTegic.value.DoubleValue
31.011

@<SCITEGIC>MOL_PROPERTY
E
SciTegic.value.DoubleValue
-2.223

@<SCITEGIC>MOL_PROPERTY
-TS
SciTegic.value.DoubleValue
33.233

@<SCITEGIC>MOL_PROPERTY
U+W
SciTegic.value.DoubleValue
-23.685

@<SCITEGIC>MOL_PROPERTY
U
SciTegic.value.DoubleValue
30.033

@<SCITEGIC>MOL_PROPERTY
W
SciTegic.value.DoubleValue
-53.718

@<SCITEGIC>MOL_PROPERTY
W(PB)
SciTegic.value.DoubleValue
-55.957

@<SCITEGIC>MOL_PROPERTY
W(SA)
SciTegic.value.DoubleValue
2.239

@<SCITEGIC>MOL_PROPERTY
Valence
SciTegic.value.DoubleValue
7.747

@<SCITEGIC>MOL_PROPERTY
Coulomb
SciTegic.value.DoubleValue
21.341

@<SCITEGIC>MOL_PROPERTY
VdW
SciTegic.value.DoubleValue
0.945

@<SCITEGIC>MOL_PROPERTY
VdW6
SciTegic.value.DoubleValue
-9.749

@<SCITEGIC>MOL_PROPERTY
VdW12
SciTegic.value.DoubleValue
10.694

@<SCITEGIC>MOL_PROPERTY
Bond
SciTegic.value.DoubleValue
0.311

@<SCITEGIC>MOL_PROPERTY
Angle
SciTegic.value.DoubleValue
2.246

@<SCITEGIC>MOL_PROPERTY
Pdih
SciTegic.value.DoubleValue
5.191

@<SCITEGIC>MOL_PROPERTY
Idih
SciTegic.value.DoubleValue
0.000

@<SCITEGIC>MOL_PROPERTY
Tether
SciTegic.value.DoubleValue
0.000

@<TRIPOS>MOLECULE
guest-s13_vm2.mol2 : vm2 ligand conformer 90
          26          25           1
SMALL
USER_CHARGES
 
@<TRIPOS>ATOM
       1    C1      19.526754   17.856044   20.028869 C.3        1 MOL1        -0.2398
       2    H1      18.453595   17.844576   20.259910 H          1 MOL1         0.0972
       3    H2      19.677034   18.473146   19.133415 H          1 MOL1         0.0972
       4    H3      19.829934   16.829528   19.785205 H          1 MOL1         0.0972
       5    C2      20.344808   18.397952   21.219799 C.3        1 MOL1        -0.1383
       6    H4      21.414418   18.363777   20.969174 H          1 MOL1         0.0961
       7    H5      20.204993   17.735995   22.082180 H          1 MOL1         0.0961
       8    C3      19.942816   19.849692   21.573672 C.3        1 MOL1        -0.1407
       9    H6      20.155516   20.482521   20.700787 H          1 MOL1         0.0961
      10    H7      18.859615   19.926893   21.735152 H          1 MOL1         0.0961
      11    C4      20.714753   20.418902   22.791656 C.3        1 MOL1        -0.1407
      12    H8      21.051172   21.429857   22.522703 H          1 MOL1         0.0961
      13    H9      21.639741   19.853223   22.965159 H          1 MOL1         0.0961
      14    C5      19.894516   20.551326   24.108033 C.3        1 MOL1        -0.1472
      15    H10     20.506194   21.128837   24.813492 H          1 MOL1         0.0961
      16    H11     19.005267   21.169849   23.928449 H          1 MOL1         0.0961
      17    C6      19.479911   19.247340   24.836374 C.3        1 MOL1         0.1190
      18    H12     19.255734   19.528166   25.870137 H          1 MOL1         0.0923
      19    C7      18.190330   18.625359   24.270976 C.3        1 MOL1        -0.2463
      20    H13     17.380691   19.365030   24.245916 H          1 MOL1         0.0972
      21    H14     17.857623   17.795694   24.906580 H          1 MOL1         0.0972
      22    H15     18.323442   18.233148   23.259178 H          1 MOL1         0.0972
      23    N1      20.594112   18.241385   24.924622 N.4        1 MOL1        -0.5974
      24    H16     21.415831   18.635530   25.391608 H          1 MOL1         0.3625
      25    H17     20.309527   17.412141   25.453692 H          1 MOL1         0.3625
      26    H18     20.886111   17.933664   23.994502 H          1 MOL1         0.3625
@<TRIPOS>BOND
    1     1     2    1
    2     1     3    1
    3     1     4    1
    4     1     5    1
    5     5     6    1
    6     5     7    1
    7     5     8    1
    8     8     9    1
    9     8    10    1
   10     8    11    1
   11    11    12    1
   12    11    13    1
   13    11    14    1
   14    14    15    1
   15    14    16    1
   16    14    17    1
   17    17    18    1
   18    17    19    1
   19    19    20    1
   20    19    21    1
   21    19    22    1
   22    17    23    1
   23    23    24    1
   24    23    25    1
   25    23    26    1
@<TRIPOS>SUBSTRUCTURE
       1 MOL1            1 RESIDUE      1      MOL     
@<SCITEGIC>MOL_PROPERTY
VM2 Rank
SciTegic.value.IntegerValue
90

@<SCITEGIC>MOL_PROPERTY
Conf_Id
SciTegic.value.IntegerValue
733

@<SCITEGIC>MOL_PROPERTY
Probability
SciTegic.value.DoubleValue
0.00

@<SCITEGIC>MOL_PROPERTY
Sum Probability
SciTegic.value.DoubleValue
100.00

@<SCITEGIC>MOL_PROPERTY
Delta G
SciTegic.value.DoubleValue
7.513

@<SCITEGIC>MOL_PROPERTY
G
SciTegic.value.DoubleValue
31.223

@<SCITEGIC>MOL_PROPERTY
E
SciTegic.value.DoubleValue
-2.139

@<SCITEGIC>MOL_PROPERTY
-TS
SciTegic.value.DoubleValue
33.362

@<SCITEGIC>MOL_PROPERTY
U+W
SciTegic.value.DoubleValue
-23.601

@<SCITEGIC>MOL_PROPERTY
U
SciTegic.value.DoubleValue
30.698

@<SCITEGIC>MOL_PROPERTY
W
SciTegic.value.DoubleValue
-54.299

@<SCITEGIC>MOL_PROPERTY
W(PB)
SciTegic.value.DoubleValue
-56.492

@<SCITEGIC>MOL_PROPERTY
W(SA)
SciTegic.value.DoubleValue
2.193

@<SCITEGIC>MOL_PROPERTY
Valence
SciTegic.value.DoubleValue
8.810

@<SCITEGIC>MOL_PROPERTY
Coulomb
SciTegic.value.DoubleValue
21.308

@<SCITEGIC>MOL_PROPERTY
VdW
SciTegic.value.DoubleValue
0.579

@<SCITEGIC>MOL_PROPERTY
VdW6
SciTegic.value.DoubleValue
-9.947

@<SCITEGIC>MOL_PROPERTY
VdW12
SciTegic.value.DoubleValue
10.526

@<SCITEGIC>MOL_PROPERTY
Bond
SciTegic.value.DoubleValue
0.332

@<SCITEGIC>MOL_PROPERTY
Angle
SciTegic.value.DoubleValue
3.013

@<SCITEGIC>MOL_PROPERTY
Pdih
SciTegic.value.DoubleValue
5.466

@<SCITEGIC>MOL_PROPERTY
Idih
SciTegic.value.DoubleValue
0.000

@<SCITEGIC>MOL_PROPERTY
Tether
SciTegic.value.DoubleValue
0.000

@<TRIPOS>MOLECULE
guest-s13_vm2.mol2 : vm2 ligand conformer 91
          26          25           1
SMALL
USER_CHARGES
 
@<TRIPOS>ATOM
       1    C1      19.747847   17.493421   21.007791 C.3        1 MOL1        -0.2398
       2    H1      20.614382   16.894875   21.316961 H          1 MOL1         0.0972
       3    H2      19.036222   17.528822   21.838200 H          1 MOL1         0.0972
       4    H3      19.256850   16.961143   20.182774 H          1 MOL1         0.0972
       5    C2      20.180669   18.905084   20.549316 C.3        1 MOL1        -0.1383
       6    H4      19.303644   19.490212   20.239468 H          1 MOL1         0.0961
       7    H5      20.796652   18.787719   19.646631 H          1 MOL1         0.0961
       8    C3      21.007822   19.688319   21.601939 C.3        1 MOL1        -0.1407
       9    H6      21.621276   19.007175   22.201335 H          1 MOL1         0.0961
      10    H7      21.734295   20.303921   21.053311 H          1 MOL1         0.0961
      11    C4      20.188892   20.660205   22.495399 C.3        1 MOL1        -0.1407
      12    H8      19.703530   21.393180   21.836214 H          1 MOL1         0.0961
      13    H9      20.884969   21.242973   23.114434 H          1 MOL1         0.0961
      14    C5      19.098394   20.047855   23.415526 C.3        1 MOL1        -0.1472
      15    H10     18.476759   20.882426   23.766242 H          1 MOL1         0.0961
      16    H11     18.418781   19.405073   22.845679 H          1 MOL1         0.0961
      17    C6      19.638034   19.311799   24.665311 C.3        1 MOL1         0.1190
      18    H12     20.382758   19.955239   25.143727 H          1 MOL1         0.0923
      19    C7      18.500118   19.066830   25.669904 C.3        1 MOL1        -0.2463
      20    H13     18.040108   20.013831   25.978570 H          1 MOL1         0.0972
      21    H14     18.878747   18.573075   26.573390 H          1 MOL1         0.0972
      22    H15     17.717324   18.432229   25.235825 H          1 MOL1         0.0972
      23    N1      20.326225   18.014487   24.348814 N.4        1 MOL1        -0.5974
      24    H16     21.094724   18.156637   23.689918 H          1 MOL1         0.3625
      25    H17     20.715672   17.582596   25.191699 H          1 MOL1         0.3625
      26    H18     19.678162   17.343585   23.929241 H          1 MOL1         0.3625
@<TRIPOS>BOND
    1     1     2    1
    2     1     3    1
    3     1     4    1
    4     1     5    1
    5     5     6    1
    6     5     7    1
    7     5     8    1
    8     8     9    1
    9     8    10    1
   10     8    11    1
   11    11    12    1
   12    11    13    1
   13    11    14    1
   14    14    15    1
   15    14    16    1
   16    14    17    1
   17    17    18    1
   18    17    19    1
   19    19    20    1
   20    19    21    1
   21    19    22    1
   22    17    23    1
   23    23    24    1
   24    23    25    1
   25    23    26    1
@<TRIPOS>SUBSTRUCTURE
       1 MOL1            1 RESIDUE      1      MOL     
@<SCITEGIC>MOL_PROPERTY
VM2 Rank
SciTegic.value.IntegerValue
91

@<SCITEGIC>MOL_PROPERTY
Conf_Id
SciTegic.value.IntegerValue
821

@<SCITEGIC>MOL_PROPERTY
Probability
SciTegic.value.DoubleValue
0.00

@<SCITEGIC>MOL_PROPERTY
Sum Probability
SciTegic.value.DoubleValue
100.00

@<SCITEGIC>MOL_PROPERTY
Delta G
SciTegic.value.DoubleValue
7.613

@<SCITEGIC>MOL_PROPERTY
G
SciTegic.value.DoubleValue
31.322

@<SCITEGIC>MOL_PROPERTY
E
SciTegic.value.DoubleValue
-1.642

@<SCITEGIC>MOL_PROPERTY
-TS
SciTegic.value.DoubleValue
32.964

@<SCITEGIC>MOL_PROPERTY
U+W
SciTegic.value.DoubleValue
-23.103

@<SCITEGIC>MOL_PROPERTY
U
SciTegic.value.DoubleValue
30.162

@<SCITEGIC>MOL_PROPERTY
W
SciTegic.value.DoubleValue
-53.266

@<SCITEGIC>MOL_PROPERTY
W(PB)
SciTegic.value.DoubleValue
-55.467

@<SCITEGIC>MOL_PROPERTY
W(SA)
SciTegic.value.DoubleValue
2.201

@<SCITEGIC>MOL_PROPERTY
Valence
SciTegic.value.DoubleValue
7.947

@<SCITEGIC>MOL_PROPERTY
Coulomb
SciTegic.value.DoubleValue
21.782

@<SCITEGIC>MOL_PROPERTY
VdW
SciTegic.value.DoubleValue
0.434

@<SCITEGIC>MOL_PROPERTY
VdW6
SciTegic.value.DoubleValue
-10.033

@<SCITEGIC>MOL_PROPERTY
VdW12
SciTegic.value.DoubleValue
10.467

@<SCITEGIC>MOL_PROPERTY
Bond
SciTegic.value.DoubleValue
0.353

@<SCITEGIC>MOL_PROPERTY
Angle
SciTegic.value.DoubleValue
3.285

@<SCITEGIC>MOL_PROPERTY
Pdih
SciTegic.value.DoubleValue
4.308

@<SCITEGIC>MOL_PROPERTY
Idih
SciTegic.value.DoubleValue
0.000

@<SCITEGIC>MOL_PROPERTY
Tether
SciTegic.value.DoubleValue
0.000

@<TRIPOS>MOLECULE
guest-s13_vm2.mol2 : vm2 ligand conformer 92
          26          25           1
SMALL
USER_CHARGES
 
@<TRIPOS>ATOM
       1    C1      20.464856   17.630905   20.229837 C.3        1 MOL1        -0.2398
       2    H1      19.893852   16.759505   19.883730 H          1 MOL1         0.0972
       3    H2      20.803819   18.183809   19.343961 H          1 MOL1         0.0972
       4    H3      21.351741   17.262806   20.761791 H          1 MOL1         0.0972
       5    C2      19.597200   18.523938   21.141224 C.3        1 MOL1        -0.1383
       6    H4      19.233377   17.930447   21.987369 H          1 MOL1         0.0961
       7    H5      18.704257   18.846336   20.587233 H          1 MOL1         0.0961
       8    C3      20.375765   19.770313   21.626799 C.3        1 MOL1        -0.1407
       9    H6      21.344301   19.485054   22.058176 H          1 MOL1         0.0961
      10    H7      20.617711   20.380447   20.745307 H          1 MOL1         0.0961
      11    C4      19.574501   20.647367   22.624705 C.3        1 MOL1        -0.1407
      12    H8      18.496389   20.464748   22.524803 H          1 MOL1         0.0961
      13    H9      19.711978   21.695942   22.326324 H          1 MOL1         0.0961
      14    C5      20.018788   20.537172   24.112340 C.3        1 MOL1        -0.1472
      15    H10     21.086861   20.779409   24.188863 H          1 MOL1         0.0961
      16    H11     19.503016   21.325721   24.676092 H          1 MOL1         0.0961
      17    C6      19.755766   19.196335   24.841802 C.3        1 MOL1         0.1190
      18    H12     20.034063   19.345684   25.889659 H          1 MOL1         0.0923
      19    C7      18.267652   18.804348   24.822776 C.3        1 MOL1        -0.2463
      20    H13     17.916053   18.572420   23.811685 H          1 MOL1         0.0972
      21    H14     17.648428   19.617989   25.220289 H          1 MOL1         0.0972
      22    H15     18.095410   17.920575   25.449146 H          1 MOL1         0.0972
      23    N1      20.633471   18.077622   24.354517 N.4        1 MOL1        -0.5974
      24    H16     21.624429   18.293197   24.496730 H          1 MOL1         0.3625
      25    H17     20.436423   17.202992   24.849390 H          1 MOL1         0.3625
      26    H18     20.494838   17.914234   23.353978 H          1 MOL1         0.3625
@<TRIPOS>BOND
    1     1     2    1
    2     1     3    1
    3     1     4    1
    4     1     5    1
    5     5     6    1
    6     5     7    1
    7     5     8    1
    8     8     9    1
    9     8    10    1
   10     8    11    1
   11    11    12    1
   12    11    13    1
   13    11    14    1
   14    14    15    1
   15    14    16    1
   16    14    17    1
   17    17    18    1
   18    17    19    1
   19    19    20    1
   20    19    21    1
   21    19    22    1
   22    17    23    1
   23    23    24    1
   24    23    25    1
   25    23    26    1
@<TRIPOS>SUBSTRUCTURE
       1 MOL1            1 RESIDUE      1      MOL     
@<SCITEGIC>MOL_PROPERTY
VM2 Rank
SciTegic.value.IntegerValue
92

@<SCITEGIC>MOL_PROPERTY
Conf_Id
SciTegic.value.IntegerValue
269

@<SCITEGIC>MOL_PROPERTY
Probability
SciTegic.value.DoubleValue
0.00

@<SCITEGIC>MOL_PROPERTY
Sum Probability
SciTegic.value.DoubleValue
100.00

@<SCITEGIC>MOL_PROPERTY
Delta G
SciTegic.value.DoubleValue
7.754

@<SCITEGIC>MOL_PROPERTY
G
SciTegic.value.DoubleValue
31.464

@<SCITEGIC>MOL_PROPERTY
E
SciTegic.value.DoubleValue
-2.237

@<SCITEGIC>MOL_PROPERTY
-TS
SciTegic.value.DoubleValue
33.701

@<SCITEGIC>MOL_PROPERTY
U+W
SciTegic.value.DoubleValue
-23.699

@<SCITEGIC>MOL_PROPERTY
U
SciTegic.value.DoubleValue
29.525

@<SCITEGIC>MOL_PROPERTY
W
SciTegic.value.DoubleValue
-53.224

@<SCITEGIC>MOL_PROPERTY
W(PB)
SciTegic.value.DoubleValue
-55.435

@<SCITEGIC>MOL_PROPERTY
W(SA)
SciTegic.value.DoubleValue
2.211

@<SCITEGIC>MOL_PROPERTY
Valence
SciTegic.value.DoubleValue
7.633

@<SCITEGIC>MOL_PROPERTY
Coulomb
SciTegic.value.DoubleValue
21.336

@<SCITEGIC>MOL_PROPERTY
VdW
SciTegic.value.DoubleValue
0.556

@<SCITEGIC>MOL_PROPERTY
VdW6
SciTegic.value.DoubleValue
-10.324

@<SCITEGIC>MOL_PROPERTY
VdW12
SciTegic.value.DoubleValue
10.881

@<SCITEGIC>MOL_PROPERTY
Bond
SciTegic.value.DoubleValue
0.326

@<SCITEGIC>MOL_PROPERTY
Angle
SciTegic.value.DoubleValue
2.670

@<SCITEGIC>MOL_PROPERTY
Pdih
SciTegic.value.DoubleValue
4.637

@<SCITEGIC>MOL_PROPERTY
Idih
SciTegic.value.DoubleValue
0.000

@<SCITEGIC>MOL_PROPERTY
Tether
SciTegic.value.DoubleValue
0.000

@<TRIPOS>MOLECULE
guest-s13_vm2.mol2 : vm2 ligand conformer 93
          26          25           1
SMALL
USER_CHARGES
 
@<TRIPOS>ATOM
       1    C1      18.870469   19.333366   20.489163 C.3        1 MOL1        -0.2398
       2    H1      18.447571   19.293555   19.477032 H          1 MOL1         0.0972
       3    H2      18.110770   18.954447   21.183778 H          1 MOL1         0.0972
       4    H3      19.063339   20.388082   20.715083 H          1 MOL1         0.0972
       5    C2      20.166427   18.497607   20.560922 C.3        1 MOL1        -0.1383
       6    H4      20.942234   18.975763   19.946837 H          1 MOL1         0.0961
       7    H5      19.974410   17.520198   20.096619 H          1 MOL1         0.0961
       8    C3      20.711212   18.253323   21.992092 C.3        1 MOL1        -0.1407
       9    H6      19.990565   17.680008   22.582118 H          1 MOL1         0.0961
      10    H7      21.580907   17.589599   21.889266 H          1 MOL1         0.0961
      11    C4      21.186398   19.520979   22.753014 C.3        1 MOL1        -0.1407
      12    H8      21.683396   20.192872   22.039959 H          1 MOL1         0.0961
      13    H9      21.977657   19.224440   23.454421 H          1 MOL1         0.0961
      14    C5      20.114933   20.333806   23.541915 C.3        1 MOL1        -0.1472
      15    H10     20.635252   21.194797   23.981322 H          1 MOL1         0.0961
      16    H11     19.380752   20.776210   22.861337 H          1 MOL1         0.0961
      17    C6      19.380573   19.618892   24.707500 C.3        1 MOL1         0.1190
      18    H12     19.150705   20.391053   25.448249 H          1 MOL1         0.0923
      19    C7      18.027233   19.021068   24.280293 C.3        1 MOL1        -0.2463
      20    H13     17.485071   18.642515   25.155425 H          1 MOL1         0.0972
      21    H14     18.137600   18.192064   23.575666 H          1 MOL1         0.0972
      22    H15     17.396160   19.785260   23.810042 H          1 MOL1         0.0972
      23    N1      20.230754   18.608959   25.429102 N.4        1 MOL1        -0.5974
      24    H16     21.085710   19.035959   25.796540 H          1 MOL1         0.3625
      25    H17     19.730633   18.193674   26.220162 H          1 MOL1         0.3625
      26    H18     20.509886   17.849258   24.803608 H          1 MOL1         0.3625
@<TRIPOS>BOND
    1     1     2    1
    2     1     3    1
    3     1     4    1
    4     1     5    1
    5     5     6    1
    6     5     7    1
    7     5     8    1
    8     8     9    1
    9     8    10    1
   10     8    11    1
   11    11    12    1
   12    11    13    1
   13    11    14    1
   14    14    15    1
   15    14    16    1
   16    14    17    1
   17    17    18    1
   18    17    19    1
   19    19    20    1
   20    19    21    1
   21    19    22    1
   22    17    23    1
   23    23    24    1
   24    23    25    1
   25    23    26    1
@<TRIPOS>SUBSTRUCTURE
       1 MOL1            1 RESIDUE      1      MOL     
@<SCITEGIC>MOL_PROPERTY
VM2 Rank
SciTegic.value.IntegerValue
93

@<SCITEGIC>MOL_PROPERTY
Conf_Id
SciTegic.value.IntegerValue
798

@<SCITEGIC>MOL_PROPERTY
Probability
SciTegic.value.DoubleValue
0.00

@<SCITEGIC>MOL_PROPERTY
Sum Probability
SciTegic.value.DoubleValue
100.00

@<SCITEGIC>MOL_PROPERTY
Delta G
SciTegic.value.DoubleValue
8.060

@<SCITEGIC>MOL_PROPERTY
G
SciTegic.value.DoubleValue
31.770

@<SCITEGIC>MOL_PROPERTY
E
SciTegic.value.DoubleValue
-1.719

@<SCITEGIC>MOL_PROPERTY
-TS
SciTegic.value.DoubleValue
33.489

@<SCITEGIC>MOL_PROPERTY
U+W
SciTegic.value.DoubleValue
-23.181

@<SCITEGIC>MOL_PROPERTY
U
SciTegic.value.DoubleValue
31.350

@<SCITEGIC>MOL_PROPERTY
W
SciTegic.value.DoubleValue
-54.530

@<SCITEGIC>MOL_PROPERTY
W(PB)
SciTegic.value.DoubleValue
-56.676

@<SCITEGIC>MOL_PROPERTY
W(SA)
SciTegic.value.DoubleValue
2.145

@<SCITEGIC>MOL_PROPERTY
Valence
SciTegic.value.DoubleValue
9.658

@<SCITEGIC>MOL_PROPERTY
Coulomb
SciTegic.value.DoubleValue
20.873

@<SCITEGIC>MOL_PROPERTY
VdW
SciTegic.value.DoubleValue
0.819

@<SCITEGIC>MOL_PROPERTY
VdW6
SciTegic.value.DoubleValue
-10.581

@<SCITEGIC>MOL_PROPERTY
VdW12
SciTegic.value.DoubleValue
11.400

@<SCITEGIC>MOL_PROPERTY
Bond
SciTegic.value.DoubleValue
0.428

@<SCITEGIC>MOL_PROPERTY
Angle
SciTegic.value.DoubleValue
4.180

@<SCITEGIC>MOL_PROPERTY
Pdih
SciTegic.value.DoubleValue
5.050

@<SCITEGIC>MOL_PROPERTY
Idih
SciTegic.value.DoubleValue
0.000

@<SCITEGIC>MOL_PROPERTY
Tether
SciTegic.value.DoubleValue
0.000

@<TRIPOS>MOLECULE
guest-s13_vm2.mol2 : vm2 ligand conformer 94
          26          25           1
SMALL
USER_CHARGES
 
@<TRIPOS>ATOM
       1    C1      21.406880   18.222524   21.100624 C.3        1 MOL1        -0.2398
       2    H1      21.251415   17.225145   21.530833 H          1 MOL1         0.0972
       3    H2      22.124919   18.116360   20.277074 H          1 MOL1         0.0972
       4    H3      21.875516   18.862548   21.854041 H          1 MOL1         0.0972
       5    C2      20.081099   18.817619   20.575691 C.3        1 MOL1        -0.1383
       6    H4      19.743964   18.189647   19.739008 H          1 MOL1         0.0961
       7    H5      20.258238   19.814342   20.148391 H          1 MOL1         0.0961
       8    C3      18.937480   18.878792   21.622283 C.3        1 MOL1        -0.1407
       9    H6      17.992191   18.824506   21.064506 H          1 MOL1         0.0961
      10    H7      18.935670   17.986901   22.258371 H          1 MOL1         0.0961
      11    C4      18.877010   20.182451   22.464344 C.3        1 MOL1        -0.1407
      12    H8      17.895557   20.234363   22.953761 H          1 MOL1         0.0961
      13    H9      18.890548   21.037815   21.775100 H          1 MOL1         0.0961
      14    C5      19.984190   20.404474   23.534899 C.3        1 MOL1        -0.1472
      15    H10     20.965585   20.474658   23.053912 H          1 MOL1         0.0961
      16    H11     19.817513   21.398665   23.969923 H          1 MOL1         0.0961
      17    C6      20.048899   19.401046   24.716047 C.3        1 MOL1         0.1190
      18    H12     20.717900   19.837284   25.464280 H          1 MOL1         0.0923
      19    C7      18.681201   19.197204   25.390680 C.3        1 MOL1        -0.2463
      20    H13     18.234322   20.161099   25.664045 H          1 MOL1         0.0972
      21    H14     18.790357   18.608646   26.309791 H          1 MOL1         0.0972
      22    H15     17.981813   18.666003   24.733946 H          1 MOL1         0.0972
      23    N1      20.671241   18.083889   24.349432 N.4        1 MOL1        -0.5974
      24    H16     20.715260   17.454020   25.155694 H          1 MOL1         0.3625
      25    H17     20.134476   17.616375   23.615928 H          1 MOL1         0.3625
      26    H18     21.626402   18.206717   24.002599 H          1 MOL1         0.3625
@<TRIPOS>BOND
    1     1     2    1
    2     1     3    1
    3     1     4    1
    4     1     5    1
    5     5     6    1
    6     5     7    1
    7     5     8    1
    8     8     9    1
    9     8    10    1
   10     8    11    1
   11    11    12    1
   12    11    13    1
   13    11    14    1
   14    14    15    1
   15    14    16    1
   16    14    17    1
   17    17    18    1
   18    17    19    1
   19    19    20    1
   20    19    21    1
   21    19    22    1
   22    17    23    1
   23    23    24    1
   24    23    25    1
   25    23    26    1
@<TRIPOS>SUBSTRUCTURE
       1 MOL1            1 RESIDUE      1      MOL     
@<SCITEGIC>MOL_PROPERTY
VM2 Rank
SciTegic.value.IntegerValue
94

@<SCITEGIC>MOL_PROPERTY
Conf_Id
SciTegic.value.IntegerValue
159

@<SCITEGIC>MOL_PROPERTY
Probability
SciTegic.value.DoubleValue
0.00

@<SCITEGIC>MOL_PROPERTY
Sum Probability
SciTegic.value.DoubleValue
100.00

@<SCITEGIC>MOL_PROPERTY
Delta G
SciTegic.value.DoubleValue
8.470

@<SCITEGIC>MOL_PROPERTY
G
SciTegic.value.DoubleValue
32.180

@<SCITEGIC>MOL_PROPERTY
E
SciTegic.value.DoubleValue
-1.491

@<SCITEGIC>MOL_PROPERTY
-TS
SciTegic.value.DoubleValue
33.671

@<SCITEGIC>MOL_PROPERTY
U+W
SciTegic.value.DoubleValue
-22.953

@<SCITEGIC>MOL_PROPERTY
U
SciTegic.value.DoubleValue
30.633

@<SCITEGIC>MOL_PROPERTY
W
SciTegic.value.DoubleValue
-53.586

@<SCITEGIC>MOL_PROPERTY
W(PB)
SciTegic.value.DoubleValue
-55.727

@<SCITEGIC>MOL_PROPERTY
W(SA)
SciTegic.value.DoubleValue
2.141

@<SCITEGIC>MOL_PROPERTY
Valence
SciTegic.value.DoubleValue
8.256

@<SCITEGIC>MOL_PROPERTY
Coulomb
SciTegic.value.DoubleValue
21.993

@<SCITEGIC>MOL_PROPERTY
VdW
SciTegic.value.DoubleValue
0.384

@<SCITEGIC>MOL_PROPERTY
VdW6
SciTegic.value.DoubleValue
-10.990

@<SCITEGIC>MOL_PROPERTY
VdW12
SciTegic.value.DoubleValue
11.375

@<SCITEGIC>MOL_PROPERTY
Bond
SciTegic.value.DoubleValue
0.404

@<SCITEGIC>MOL_PROPERTY
Angle
SciTegic.value.DoubleValue
4.022

@<SCITEGIC>MOL_PROPERTY
Pdih
SciTegic.value.DoubleValue
3.830

@<SCITEGIC>MOL_PROPERTY
Idih
SciTegic.value.DoubleValue
0.000

@<SCITEGIC>MOL_PROPERTY
Tether
SciTegic.value.DoubleValue
0.000

@<TRIPOS>MOLECULE
guest-s13_vm2.mol2 : vm2 ligand conformer 95
          26          25           1
SMALL
USER_CHARGES
 
@<TRIPOS>ATOM
       1    C1      20.775726   18.002250   20.323362 C.3        1 MOL1        -0.2398
       2    H1      20.828692   16.942890   20.040585 H          1 MOL1         0.0972
       3    H2      20.738034   18.592491   19.398562 H          1 MOL1         0.0972
       4    H3      21.706182   18.250508   20.847734 H          1 MOL1         0.0972
       5    C2      19.529681   18.265928   21.199814 C.3        1 MOL1        -0.1383
       6    H4      19.584026   17.655111   22.107738 H          1 MOL1         0.0961
       7    H5      18.641630   17.918018   20.653773 H          1 MOL1         0.0961
       8    C3      19.334111   19.763436   21.551118 C.3        1 MOL1        -0.1407
       9    H6      19.352688   20.336021   20.613412 H          1 MOL1         0.0961
      10    H7      18.329016   19.924242   21.962707 H          1 MOL1         0.0961
      11    C4      20.398642   20.355441   22.513778 C.3        1 MOL1        -0.1407
      12    H8      20.669386   21.348019   22.127996 H          1 MOL1         0.0961
      13    H9      21.331188   19.780159   22.478972 H          1 MOL1         0.0961
      14    C5      19.940337   20.556337   23.987869 C.3        1 MOL1        -0.1472
      15    H10     20.724615   21.134573   24.493711 H          1 MOL1         0.0961
      16    H11     19.050094   21.198460   24.014751 H          1 MOL1         0.0961
      17    C6      19.693498   19.289235   24.845459 C.3        1 MOL1         0.1190
      18    H12     19.779539   19.599684   25.891403 H          1 MOL1         0.0923
      19    C7      18.271164   18.723717   24.681591 C.3        1 MOL1        -0.2463
      20    H13     18.089287   18.331089   23.677750 H          1 MOL1         0.0972
      21    H14     17.520798   19.497847   24.884007 H          1 MOL1         0.0972
      22    H15     18.100850   17.907394   25.394091 H          1 MOL1         0.0972
      23    N1      20.744841   18.231656   24.651009 N.4        1 MOL1        -0.5974
      24    H16     21.678408   18.590292   24.871217 H          1 MOL1         0.3625
      25    H17     20.577826   17.420751   25.253591 H          1 MOL1         0.3625
      26    H18     20.761032   17.905385   23.681827 H          1 MOL1         0.3625
@<TRIPOS>BOND
    1     1     2    1
    2     1     3    1
    3     1     4    1
    4     1     5    1
    5     5     6    1
    6     5     7    1
    7     5     8    1
    8     8     9    1
    9     8    10    1
   10     8    11    1
   11    11    12    1
   12    11    13    1
   13    11    14    1
   14    14    15    1
   15    14    16    1
   16    14    17    1
   17    17    18    1
   18    17    19    1
   19    19    20    1
   20    19    21    1
   21    19    22    1
   22    17    23    1
   23    23    24    1
   24    23    25    1
   25    23    26    1
@<TRIPOS>SUBSTRUCTURE
       1 MOL1            1 RESIDUE      1      MOL     
@<SCITEGIC>MOL_PROPERTY
VM2 Rank
SciTegic.value.IntegerValue
95

@<SCITEGIC>MOL_PROPERTY
Conf_Id
SciTegic.value.IntegerValue
447

@<SCITEGIC>MOL_PROPERTY
Probability
SciTegic.value.DoubleValue
0.00

@<SCITEGIC>MOL_PROPERTY
Sum Probability
SciTegic.value.DoubleValue
100.00

@<SCITEGIC>MOL_PROPERTY
Delta G
SciTegic.value.DoubleValue
8.656

@<SCITEGIC>MOL_PROPERTY
G
SciTegic.value.DoubleValue
32.366

@<SCITEGIC>MOL_PROPERTY
E
SciTegic.value.DoubleValue
-0.990

@<SCITEGIC>MOL_PROPERTY
-TS
SciTegic.value.DoubleValue
33.356

@<SCITEGIC>MOL_PROPERTY
U+W
SciTegic.value.DoubleValue
-22.451

@<SCITEGIC>MOL_PROPERTY
U
SciTegic.value.DoubleValue
31.359

@<SCITEGIC>MOL_PROPERTY
W
SciTegic.value.DoubleValue
-53.811

@<SCITEGIC>MOL_PROPERTY
W(PB)
SciTegic.value.DoubleValue
-56.006

@<SCITEGIC>MOL_PROPERTY
W(SA)
SciTegic.value.DoubleValue
2.195

@<SCITEGIC>MOL_PROPERTY
Valence
SciTegic.value.DoubleValue
9.442

@<SCITEGIC>MOL_PROPERTY
Coulomb
SciTegic.value.DoubleValue
21.140

@<SCITEGIC>MOL_PROPERTY
VdW
SciTegic.value.DoubleValue
0.777

@<SCITEGIC>MOL_PROPERTY
VdW6
SciTegic.value.DoubleValue
-10.522

@<SCITEGIC>MOL_PROPERTY
VdW12
SciTegic.value.DoubleValue
11.299

@<SCITEGIC>MOL_PROPERTY
Bond
SciTegic.value.DoubleValue
0.381

@<SCITEGIC>MOL_PROPERTY
Angle
SciTegic.value.DoubleValue
3.343

@<SCITEGIC>MOL_PROPERTY
Pdih
SciTegic.value.DoubleValue
5.718

@<SCITEGIC>MOL_PROPERTY
Idih
SciTegic.value.DoubleValue
0.000

@<SCITEGIC>MOL_PROPERTY
Tether
SciTegic.value.DoubleValue
0.000

